* Spice Netlist (renamed)

*--- Top Level ---
.subckt A64-OlinuXino_Rev_H AP_CK32KO AP_NMI_ AP_RESET_ GND GNDA IPS KEYADC NAND_Flash___eMMC__T_Card_and_Audio_HPOUTFB NAND_Flash___eMMC__T_Card_and_Audio_HPOUTL NAND_Flash___eMMC__T_Card_and_Audio_HPOUTR NAND_Flash___eMMC__T_Card_and_Audio_HP_DET NAND_Flash___eMMC__T_Card_and_Audio_LINEINL NAND_Flash___eMMC__T_Card_and_Audio_LINEINR NAND_Flash___eMMC__T_Card_and_Audio_LINEOUTL NAND_Flash___eMMC__T_Card_and_Audio_LINEOUTR NAND_Flash___eMMC__T_Card_and_Audio_MBIAS NAND_Flash___eMMC__T_Card_and_Audio_MICIN1N NAND_Flash___eMMC__T_Card_and_Audio_MICIN1P NAND_Flash___eMMC__T_Card_and_Audio_MICIN2N NAND_Flash___eMMC__T_Card_and_Audio_MICIN2P NAND_Flash___eMMC__T_Card_and_Audio_NAND0_ALE__SDC2_DS NAND_Flash___eMMC__T_Card_and_Audio_NAND0_DQ0__SDC2_D0 NAND_Flash___eMMC__T_Card_and_Audio_NAND0_DQ1__SDC2_D1 NAND_Flash___eMMC__T_Card_and_Audio_NAND0_DQ2__SDC2_D2 NAND_Flash___eMMC__T_Card_and_Audio_NAND0_DQ3__SDC2_D3 NAND_Flash___eMMC__T_Card_and_Audio_NAND0_DQ4__SDC2_D4 NAND_Flash___eMMC__T_Card_and_Audio_NAND0_DQ5__SDC2_D5 NAND_Flash___eMMC__T_Card_and_Audio_NAND0_DQ6__SDC2_D6 NAND_Flash___eMMC__T_Card_and_Audio_NAND0_DQ7__SDC2_D7 NAND_Flash___eMMC__T_Card_and_Audio_NAND0_DQS__SDC2_RST NAND_Flash___eMMC__T_Card_and_Audio_NAND0_RB0__SDC2_CMD NAND_Flash___eMMC__T_Card_and_Audio_NAND0_RE__SDC2_CLK NAND_Flash___eMMC__T_Card_and_Audio_SDC0_CLK NAND_Flash___eMMC__T_Card_and_Audio_SDC0_CMD NAND_Flash___eMMC__T_Card_and_Audio_SDC0_D0 NAND_Flash___eMMC__T_Card_and_Audio_SDC0_D1 NAND_Flash___eMMC__T_Card_and_Audio_SDC0_D2 NAND_Flash___eMMC__T_Card_and_Audio_SDC0_D3 NAND_Flash___eMMC__T_Card_and_Audio_SDC0_DET_ NAND_Flash___eMMC__T_Card_and_Audio_eMMC_CLK Net__3.3V_VCC_PE_2.8V1_Pad2_ Net__ANT1_Pad1_ Net__ANT2_Pad1_ Net__C105_Pad1_ Net__C105_Pad2_ Net__C107_Pad2_ Net__C125_Pad2_ Net__C135_Pad1_ Net__C143_Pad2_ Net__C149_Pad1_ Net__C151_Pad1_ Net__C174_Pad2_ Net__C177_Pad2_ Net__C181_Pad2_ Net__C182_Pad2_ Net__C183_Pad1_ Net__C184_Pad1_ Net__C185_Pad1_ Net__C187_Pad1_ Net__C188_Pad2_ Net__C192_Pad2_ Net__C196_Pad2_ Net__C198_Pad2_ Net__C199_Pad2_ Net__C200_Pad2_ Net__C204_Pad2_ Net__C207_Pad2_ Net__C211_Pad2_ Net__C212_Pad2_ Net__C213_Pad2_ Net__C218_Pad1_ Net__C37_Pad2_ Net__C42_Pad1_ Net__C45_Pad1_ Net__C48_Pad2_ Net__C51_Pad1_ Net__C52_Pad1_ Net__C54_Pad2_ Net__C55_Pad1_ Net__C57_Pad2_ Net__C58_Pad1_ Net__C59_Pad1_ Net__C60_Pad1_ Net__C61_Pad1_ Net__C61_Pad2_ Net__C62_Pad1_ Net__C63_Pad1_ Net__C64_Pad1_ Net__C65_Pad2_ Net__C66_Pad2_ Net__C68_Pad2_ Net__C74_Pad1_ Net__C75_Pad2_ Net__C86_Pad2_ Net__C87_Pad2_ Net__C88_Pad2_ Net__CHGLED1_Pad1_ Net__D2_Pad2_ Net__D3_Pad1_ Net__D4_Pad1_ Net__D4_Pad2_ Net__DBG_UART1_Pad1_ Net__FET1_Pad3_ Net__FET2_Pad1_ Net__FET3_Pad1_ Net__GPIO_LED1_Pad2_ Net__HDMI1_Pad14_ Net__HDMI1_Pad19_ Net__HEADPHONES_LINEOUT1_Pad1_ Net__HEADPHONES_LINEOUT1_Pad2_ Net__HEADPHONES_LINEOUT1_Pad3_ Net__HEADPHONES_LINEOUT1_Pad4_ Net__HEADPHONES_LINEOUT1_Pad5_ Net__HPHONEOUTL_LINEOUTL1_Pad2_ Net__HPHONEOUTR_LINEOUTR1_Pad2_ Net__HSIC1_Pad1_ Net__HSIC1_Pad2_ Net__HSIC1_Pad3_ Net__L14_Pad1_ Net__L15_Pad1_ Net__L17_Pad1_ Net__L18_Pad2_ Net__L19_Pad1_ Net__L20_Pad1_ Net__LINEINL_MICIN2_Pad2_ Net__LINEINR_MICIN1_Pad2_ Net__MICRO_SD1_Pad5_ Net__MIC_LINEIN1_Pad4_ Net__MIC_LINEIN1_Pad5_ Net__MIPI_DSI1_Pad16_ Net__MIPI_DSI1_Pad17_ Net__MIPI_DSI1_Pad19_ Net__MIPI_DSI1_Pad20_ Net__PWRLED1_Pad2_ Net__PWRON1_Pad1_ Net__R105_Pad2_ Net__R107_Pad1_ Net__R109_Pad2_ Net__R10_Pad1_ Net__R111_Pad2_ Net__R113_Pad2_ Net__R115_Pad1_ Net__R119_Pad1_ Net__R13_Pad1_ Net__R14_Pad1_ Net__R15_Pad1_ Net__R19_Pad1_ Net__R3_Pad2_ Net__R41_Pad2_ Net__R49_Pad2_ Net__R4_Pad2_ Net__R54_Pad1_ Net__R55_Pad1_ Net__R57_Pad1_ Net__R60_Pad1_ Net__R72_Pad1_ Net__R7_Pad2_ Net__R80_Pad2_ Net__R82_Pad1_ Net__R83_Pad1_ Net__R86_Pad1_ Net__R87_Pad1_ Net__R89_Pad1_ Net__R94_Pad1_ Net__R96_Pad1_ Net__R97_Pad1_ Net__R98_Pad1_ Net__R9_Pad1_ Net__RM15_Pad1.1_ Net__RM15_Pad2.1_ Net__RM15_Pad3.1_ Net__RM15_Pad4.1_ Net__RM1_Pad1.2_ Net__RM1_Pad2.2_ Net__RM1_Pad3.2_ Net__RM1_Pad4.2_ Net__T1_Pad3_ Net__U11_Pad10_ Net__U11_Pad11_ Net__U11_Pad21_ Net__U11_Pad23_ Net__U11_Pad29_ Net__U11_Pad30_ Net__U11_Pad32_ Net__U11_Pad35_ Net__U11_Pad37_ Net__U11_Pad38_ Net__U11_Pad39_ Net__U11_Pad3_ Net__U11_Pad40_ Net__U11_Pad4_ Net__U11_Pad5_ Net__U11_Pad8_ Net__U13_Pad6_ Net__U14_Pad23_ Net__U14_Pad24_ Net__U15_Pad13_ Net__U15_Pad43_ Net__U15_Pad47_ Net__U1_PadA13_ Net__U1_PadB10_ Net__U1_PadB13_ Net__U1_PadC14_ Net__U1_PadD14_ Net__U1_PadE16_ Net__U1_PadF16_ PC4 PC7 PH10 PH11 PL10 PL11 PL12 PL7 PL8 PL9 PMU_SCK PMU_SDA Power_Supply__Extensions_and_MiPi_DSI_1.8V_DVDD_CSI Power_Supply__Extensions_and_MiPi_DSI_2.8V_AVDD_CSI Power_Supply__Extensions_and_MiPi_DSI_3.3V_MIPI Power_Supply__Extensions_and_MiPi_DSI_DC5SET Power_Supply__Extensions_and_MiPi_DSI_DSI_CKN Power_Supply__Extensions_and_MiPi_DSI_DSI_CKP Power_Supply__Extensions_and_MiPi_DSI_DSI_D0N Power_Supply__Extensions_and_MiPi_DSI_DSI_D0P Power_Supply__Extensions_and_MiPi_DSI_DSI_D1N Power_Supply__Extensions_and_MiPi_DSI_DSI_D1P Power_Supply__Extensions_and_MiPi_DSI_DSI_D2N Power_Supply__Extensions_and_MiPi_DSI_DSI_D2P Power_Supply__Extensions_and_MiPi_DSI_DSI_D3N Power_Supply__Extensions_and_MiPi_DSI_DSI_D3P Power_Supply__Extensions_and_MiPi_DSI_MIPI_DSI_BKL Power_Supply__Extensions_and_MiPi_DSI_MIPI_DSI_EN Power_Supply__Extensions_and_MiPi_DSI_MIPI_DSI_RST Power_Supply__Extensions_and_MiPi_DSI_PB0 Power_Supply__Extensions_and_MiPi_DSI_PB1 Power_Supply__Extensions_and_MiPi_DSI_PB2 Power_Supply__Extensions_and_MiPi_DSI_PB3 Power_Supply__Extensions_and_MiPi_DSI_PB4 Power_Supply__Extensions_and_MiPi_DSI_PE0 Power_Supply__Extensions_and_MiPi_DSI_PE1 Power_Supply__Extensions_and_MiPi_DSI_PE10 Power_Supply__Extensions_and_MiPi_DSI_PE11 Power_Supply__Extensions_and_MiPi_DSI_PE12 Power_Supply__Extensions_and_MiPi_DSI_PE13 Power_Supply__Extensions_and_MiPi_DSI_PE14 Power_Supply__Extensions_and_MiPi_DSI_PE15 Power_Supply__Extensions_and_MiPi_DSI_PE16 Power_Supply__Extensions_and_MiPi_DSI_PE16__POWERON Power_Supply__Extensions_and_MiPi_DSI_PE17__GPIO_LED Power_Supply__Extensions_and_MiPi_DSI_PE2 Power_Supply__Extensions_and_MiPi_DSI_PE3 Power_Supply__Extensions_and_MiPi_DSI_PE4 Power_Supply__Extensions_and_MiPi_DSI_PE5 Power_Supply__Extensions_and_MiPi_DSI_PE6 Power_Supply__Extensions_and_MiPi_DSI_PE7 Power_Supply__Extensions_and_MiPi_DSI_PE8 Power_Supply__Extensions_and_MiPi_DSI_PE9 Power_Supply__Extensions_and_MiPi_DSI_UEXT_CLK Power_Supply__Extensions_and_MiPi_DSI_UEXT_CS Power_Supply__Extensions_and_MiPi_DSI_UEXT_MISO Power_Supply__Extensions_and_MiPi_DSI_UEXT_MOSI S0SA0 S0SA1 S0SA10 S0SA11 S0SA12 S0SA13 S0SA14 S0SA15 S0SA2 S0SA3 S0SA4 S0SA5 S0SA6 S0SA7 S0SA8 S0SA9 S0SBA0 S0SBA1 S0SBA2 S0SCAS S0SCKE0 S0SCKE1 S0SCK_N S0SCK_P S0SCS0 S0SCS1 S0SDQ0 S0SDQ1 S0SDQ10 S0SDQ11 S0SDQ12 S0SDQ13 S0SDQ14 S0SDQ15 S0SDQ16 S0SDQ17 S0SDQ18 S0SDQ19 S0SDQ2 S0SDQ20 S0SDQ21 S0SDQ22 S0SDQ23 S0SDQ24 S0SDQ25 S0SDQ26 S0SDQ27 S0SDQ28 S0SDQ29 S0SDQ3 S0SDQ30 S0SDQ31 S0SDQ4 S0SDQ5 S0SDQ6 S0SDQ7 S0SDQ8 S0SDQ9 S0SDQM0 S0SDQM1 S0SDQM2 S0SDQM3 S0SDQS0_N S0SDQS0_P S0SDQS1_N S0SDQS1_P S0SDQS2_N S0SDQS2_P S0SDQS3_N S0SDQS3_P S0SODT0 S0SODT1 S0SRAS S0SRST S0SVREF S0SWE SPI0_CLK SPI0_CS SPI0_MISO SPI0_MOSI TWI0_SCK TWI0_SDA TWI1_SCK TWI1_SDA UART3_RX UART3_TX UBOOT USB0_DRV USB0_D_N USB0_D_P USB1_DRV USB_HDMI_WiFi_BT_Ethernet_LCD_1.25_EXT USB_HDMI_WiFi_BT_Ethernet_LCD_AP_WAKE_BT USB_HDMI_WiFi_BT_Ethernet_LCD_BT_PCM_CLK USB_HDMI_WiFi_BT_Ethernet_LCD_BT_PCM_DIN USB_HDMI_WiFi_BT_Ethernet_LCD_BT_PCM_DOUT USB_HDMI_WiFi_BT_Ethernet_LCD_BT_PCM_SYNC USB_HDMI_WiFi_BT_Ethernet_LCD_BT_RST_N USB_HDMI_WiFi_BT_Ethernet_LCD_BT_UART_CTS USB_HDMI_WiFi_BT_Ethernet_LCD_BT_UART_RX USB_HDMI_WiFi_BT_Ethernet_LCD_BT_UART_TX USB_HDMI_WiFi_BT_Ethernet_LCD_BT_WAKE_AP USB_HDMI_WiFi_BT_Ethernet_LCD_EPHY_RST_ USB_HDMI_WiFi_BT_Ethernet_LCD_GCLKIN_LCD_VSYNC USB_HDMI_WiFi_BT_Ethernet_LCD_GMDC_LCD_PWM USB_HDMI_WiFi_BT_Ethernet_LCD_GMDIO_LCD_PWR USB_HDMI_WiFi_BT_Ethernet_LCD_GRXCK_LCD_D18 USB_HDMI_WiFi_BT_Ethernet_LCD_GRXCTL_LCD_D19 USB_HDMI_WiFi_BT_Ethernet_LCD_GRXD0_LCD_D15 USB_HDMI_WiFi_BT_Ethernet_LCD_GRXD1_LCD_D14 USB_HDMI_WiFi_BT_Ethernet_LCD_GRXD2_LCD_D13 USB_HDMI_WiFi_BT_Ethernet_LCD_GRXD3_LCD_D12 USB_HDMI_WiFi_BT_Ethernet_LCD_GTXCK_LCD_DE USB_HDMI_WiFi_BT_Ethernet_LCD_GTXCTL_LCD_HSYNC USB_HDMI_WiFi_BT_Ethernet_LCD_GTXD0_LCD_CLK USB_HDMI_WiFi_BT_Ethernet_LCD_GTXD1_LCD_D23 USB_HDMI_WiFi_BT_Ethernet_LCD_GTXD2_LCD_D22 USB_HDMI_WiFi_BT_Ethernet_LCD_GTXD3_LCD_D21 USB_HDMI_WiFi_BT_Ethernet_LCD_HCEC USB_HDMI_WiFi_BT_Ethernet_LCD_HHPD USB_HDMI_WiFi_BT_Ethernet_LCD_HSCL USB_HDMI_WiFi_BT_Ethernet_LCD_HSDA USB_HDMI_WiFi_BT_Ethernet_LCD_HTX0N USB_HDMI_WiFi_BT_Ethernet_LCD_HTX0P USB_HDMI_WiFi_BT_Ethernet_LCD_HTX1N USB_HDMI_WiFi_BT_Ethernet_LCD_HTX1P USB_HDMI_WiFi_BT_Ethernet_LCD_HTX2N USB_HDMI_WiFi_BT_Ethernet_LCD_HTX2P USB_HDMI_WiFi_BT_Ethernet_LCD_HTXCN USB_HDMI_WiFi_BT_Ethernet_LCD_HTXCP USB_HDMI_WiFi_BT_Ethernet_LCD_LCD_D10 USB_HDMI_WiFi_BT_Ethernet_LCD_LCD_D11 USB_HDMI_WiFi_BT_Ethernet_LCD_LCD_D2 USB_HDMI_WiFi_BT_Ethernet_LCD_LCD_D20 USB_HDMI_WiFi_BT_Ethernet_LCD_LCD_D3 USB_HDMI_WiFi_BT_Ethernet_LCD_LCD_D4 USB_HDMI_WiFi_BT_Ethernet_LCD_LCD_D5 USB_HDMI_WiFi_BT_Ethernet_LCD_LCD_D6 USB_HDMI_WiFi_BT_Ethernet_LCD_LCD_D7 USB_HDMI_WiFi_BT_Ethernet_LCD_MDI_0__ USB_HDMI_WiFi_BT_Ethernet_LCD_MDI_0___0 USB_HDMI_WiFi_BT_Ethernet_LCD_MDI_1__ USB_HDMI_WiFi_BT_Ethernet_LCD_MDI_1___0 USB_HDMI_WiFi_BT_Ethernet_LCD_MDI_2__ USB_HDMI_WiFi_BT_Ethernet_LCD_MDI_2___0 USB_HDMI_WiFi_BT_Ethernet_LCD_MDI_3__ USB_HDMI_WiFi_BT_Ethernet_LCD_MDI_3___0 USB_HDMI_WiFi_BT_Ethernet_LCD_PH7_CTP_INT USB_HDMI_WiFi_BT_Ethernet_LCD_PH8_CTP_RST USB_HDMI_WiFi_BT_Ethernet_LCD_PHYAD0 USB_HDMI_WiFi_BT_Ethernet_LCD_PHYAD1 USB_HDMI_WiFi_BT_Ethernet_LCD_USB0_ID USB_HDMI_WiFi_BT_Ethernet_LCD_USB0_VBUSDET USB_HDMI_WiFi_BT_Ethernet_LCD_USB1_DM USB_HDMI_WiFi_BT_Ethernet_LCD_USB1_DP USB_HDMI_WiFi_BT_Ethernet_LCD_VDD33 USB_HDMI_WiFi_BT_Ethernet_LCD_WL_PMU_EN USB_HDMI_WiFi_BT_Ethernet_LCD_WL_SDIO_CLK USB_HDMI_WiFi_BT_Ethernet_LCD_WL_SDIO_CMD USB_HDMI_WiFi_BT_Ethernet_LCD_WL_SDIO_D0 USB_HDMI_WiFi_BT_Ethernet_LCD_WL_SDIO_D1 USB_HDMI_WiFi_BT_Ethernet_LCD_WL_SDIO_D2 USB_HDMI_WiFi_BT_Ethernet_LCD_WL_SDIO_D3 USB_HDMI_WiFi_BT_Ethernet_LCD_WL_WAKE_AP VBAT VCC_PC VCC_PE VCC_PL VDDFB_CPUX VREF0_DDR3 _1.1V_CPUS _1.1V_CPUX _1.1V_SYS _1.2V_HSIC _1.5V _1.8V _3.0VA _3.0V_RTC _3.3V _3.3VD _3.3VWiFiIO _5V _5V_EXT _5V_USBOTG
  XC31 _1.5V GND C
  XC28 _1.5V GND C
  XC27 _1.5V GND C
  XC26 _1.5V GND C
  XC30 _1.5V GND C
  XC29 _1.5V GND C
  XR7 GND Net__R7_Pad2_ R
  XC22 GND S0SVREF C
  XR3 S0SCK_P Net__R3_Pad2_ R
  XR4 S0SCK_N Net__R4_Pad2_ R
  XR9 Net__R9_Pad1_ GND R
  XR13 Net__R13_Pad1_ GND R
  XR8 GND VREF0_DDR3 R
  XR5 VREF0_DDR3 _1.5V R
  XC11 _1.5V VREF0_DDR3 C
  XC23 VREF0_DDR3 GND C
  XC24 VREF0_DDR3 GND C
  XC12 _1.5V GND C
  XC13 _1.5V GND C
  XC14 _1.5V GND C
  XC15 _1.5V GND C
  XC16 _1.5V GND C
  XC1 _1.5V GND C
  XC2 _1.5V GND C
  XC3 _1.5V GND C
  XC4 _1.5V GND C
  XC5 _1.5V GND C
  XR12 GND S0SVREF R
  XR11 S0SVREF _1.5V R
  XC32 S0SVREF _1.5V C
  XC33 GND S0SVREF C
  XR10 Net__R10_Pad1_ GND R
  XR14 Net__R14_Pad1_ GND R
  XC25 VREF0_DDR3 GND C
  XC17 _1.5V GND C
  XC18 _1.5V GND C
  XC19 _1.5V GND C
  XC20 _1.5V GND C
  XC21 _1.5V GND C
  XC6 _1.5V GND C
  XC7 _1.5V GND C
  XC8 _1.5V GND C
  XC9 _1.5V GND C
  XC10 _1.5V GND C
  XR2 S0SCK_N S0SCK_P R
  XR1 S0SRST _1.5V R
  XR6 VREF0_DDR3 S0SVREF R
  XU2 _1.5V S0SDQ15 S0SDQ12 S0SDQ8 _1.5V GND GND _1.5V GND S0SDQS1_N S0SDQ10 GND _1.5V S0SDQ13 S0SDQ14 S0SDQS1_P S0SDQ9 _1.5V GND _1.5V S0SDQM1 S0SDQ11 GND _1.5V GND GND S0SDQ4 S0SDQM0 GND _1.5V _1.5V S0SDQ2 S0SDQS0_P S0SDQ0 S0SDQ7 GND GND S0SDQ1 S0SDQS0_N _1.5V GND GND VREF0_DDR3 _1.5V S0SDQ5 S0SDQ3 S0SDQ6 _1.5V S0SODT1 GND S0SRAS S0SCK_P GND S0SCKE1 S0SODT0 _1.5V S0SCAS S0SCK_N _1.5V S0SCKE0 S0SCS1 S0SCS0 S0SWE S0SA10 Net__R9_Pad1_ Net__R13_Pad1_ GND S0SBA0 S0SBA2 S0SA15 VREF0_DDR3 GND _1.5V S0SA3 S0SA0 S0SA12 S0SBA1 _1.5V GND S0SA5 S0SA2 S0SA1 S0SA4 GND _1.5V S0SA7 S0SA9 S0SA11 S0SA6 _1.5V GND S0SRST S0SA13 S0SA14 S0SA8 GND H5TQ2G63BFR_MEM4G16D3EABG-125--H5TC8G63AMR-PBA_K4B8G1646Q-MYK0(FBGA-96_512MX16_DDR3-1600_11-11-11)
  XU3 _1.5V S0SDQ30 S0SDQ28 S0SDQ24 _1.5V GND GND _1.5V GND S0SDQS3_N S0SDQ27 GND _1.5V S0SDQ31 S0SDQ29 S0SDQS3_P S0SDQ25 _1.5V GND _1.5V S0SDQM3 S0SDQ26 GND _1.5V GND GND S0SDQ22 S0SDQM2 GND _1.5V _1.5V S0SDQ21 S0SDQS2_P S0SDQ16 S0SDQ19 GND GND S0SDQ23 S0SDQS2_N _1.5V GND GND VREF0_DDR3 _1.5V S0SDQ20 S0SDQ18 S0SDQ17 _1.5V S0SODT1 GND S0SRAS S0SCK_P GND S0SCKE1 S0SODT0 _1.5V S0SCAS S0SCK_N _1.5V S0SCKE0 S0SCS1 S0SCS0 S0SWE S0SA10 Net__R10_Pad1_ Net__R14_Pad1_ GND S0SBA0 S0SBA2 S0SA15 VREF0_DDR3 GND _1.5V S0SA3 S0SA0 S0SA12 S0SBA1 _1.5V GND S0SA5 S0SA2 S0SA1 S0SA4 GND _1.5V S0SA7 S0SA9 S0SA11 S0SA6 _1.5V GND S0SRST S0SA13 S0SA14 S0SA8 GND H5TQ2G63BFR_MEM4G16D3EABG-125--H5TC8G63AMR-PBA_K4B8G1646Q-MYK0(FBGA-96_512MX16_DDR3-1600_11-11-11)
  XU1 GND GNDA Net__U1_PadA13_ NAND_Flash___eMMC__T_Card_and_Audio_LINEINR KEYADC NAND_Flash___eMMC__T_Card_and_Audio_MICIN2N USB_HDMI_WiFi_BT_Ethernet_LCD_WL_PMU_EN S0SDQ22 USB_HDMI_WiFi_BT_Ethernet_LCD_BT_RST_N USB0_D_P GND S0SDQ26 S0SDQ27 S0SDQ28 S0SDQ29 _1.1V_CPUX TWI0_SDA Net__R97_Pad1_ Net__R98_Pad1_ USB_HDMI_WiFi_BT_Ethernet_LCD_GRXD2_LCD_D13 USB_HDMI_WiFi_BT_Ethernet_LCD_LCD_D5 USB_HDMI_WiFi_BT_Ethernet_LCD_LCD_D7 USB_HDMI_WiFi_BT_Ethernet_LCD_LCD_D11 USB_HDMI_WiFi_BT_Ethernet_LCD_LCD_D3 Power_Supply__Extensions_and_MiPi_DSI_PE0 Power_Supply__Extensions_and_MiPi_DSI_PE4 USB_HDMI_WiFi_BT_Ethernet_LCD_LCD_D2 Power_Supply__Extensions_and_MiPi_DSI_PE3 Power_Supply__Extensions_and_MiPi_DSI_PE2 _1.1V_CPUX PH11 Power_Supply__Extensions_and_MiPi_DSI_MIPI_DSI_RST Power_Supply__Extensions_and_MiPi_DSI_PB3 USB_HDMI_WiFi_BT_Ethernet_LCD_USB0_ID TWI1_SDA NAND_Flash___eMMC__T_Card_and_Audio_SDC0_D1 Net__R72_Pad1_ Net__R19_Pad1_ Net__RM1_Pad2.2_ Net__RM1_Pad4.2_ USB_HDMI_WiFi_BT_Ethernet_LCD_LCD_D20 USB_HDMI_WiFi_BT_Ethernet_LCD_GRXCTL_LCD_D19 USB_HDMI_WiFi_BT_Ethernet_LCD_BT_UART_RX USB_HDMI_WiFi_BT_Ethernet_LCD_BT_PCM_CLK USB_HDMI_WiFi_BT_Ethernet_LCD_BT_PCM_SYNC _1.1V_CPUX Power_Supply__Extensions_and_MiPi_DSI_PE12 Power_Supply__Extensions_and_MiPi_DSI_PE16 Power_Supply__Extensions_and_MiPi_DSI_PE10 Power_Supply__Extensions_and_MiPi_DSI_PE1 USB_HDMI_WiFi_BT_Ethernet_LCD_USB0_VBUSDET UART3_TX NAND_Flash___eMMC__T_Card_and_Audio_SDC0_D3 Power_Supply__Extensions_and_MiPi_DSI_PB1 NAND_Flash___eMMC__T_Card_and_Audio_SDC0_DET_ NAND_Flash___eMMC__T_Card_and_Audio_SDC0_D2 _1.1V_CPUX USB_HDMI_WiFi_BT_Ethernet_LCD_GMDIO_LCD_PWR USB_HDMI_WiFi_BT_Ethernet_LCD_GCLKIN_LCD_VSYNC Net__RM1_Pad1.2_ Net__RM1_Pad3.2_ USB_HDMI_WiFi_BT_Ethernet_LCD_GRXCK_LCD_D18 USB_HDMI_WiFi_BT_Ethernet_LCD_BT_UART_CTS USB_HDMI_WiFi_BT_Ethernet_LCD_BT_PCM_DIN _1.1V_CPUX Power_Supply__Extensions_and_MiPi_DSI_PE14 Power_Supply__Extensions_and_MiPi_DSI_PE8 GND TWI1_SCK USB_HDMI_WiFi_BT_Ethernet_LCD_PH7_CTP_INT UART3_RX NAND_Flash___eMMC__T_Card_and_Audio_SDC0_CLK S0SDQ20 Net__U1_PadB10_ Net__C59_Pad1_ Net__C55_Pad1_ Net__U1_PadB13_ NAND_Flash___eMMC__T_Card_and_Audio_LINEINL NAND_Flash___eMMC__T_Card_and_Audio_MICIN1P NAND_Flash___eMMC__T_Card_and_Audio_MICIN1N NAND_Flash___eMMC__T_Card_and_Audio_MICIN2P AP_CK32KO Net__C183_Pad1_ S0SDQ21 USB_HDMI_WiFi_BT_Ethernet_LCD_AP_WAKE_BT PL8 USB0_D_N USB_HDMI_WiFi_BT_Ethernet_LCD_USB1_DP S0SDQ23 S0SDQ25 S0SDQS3_N S0SDQS3_P S0SDQM3 S0SDQ30 S0SDQ31 NAND_Flash___eMMC__T_Card_and_Audio_HPOUTFB Net__C51_Pad1_ NAND_Flash___eMMC__T_Card_and_Audio_HPOUTR NAND_Flash___eMMC__T_Card_and_Audio_HPOUTL Net__U1_PadC14_ NAND_Flash___eMMC__T_Card_and_Audio_LINEOUTR PMU_SDA Net__C184_Pad1_ PL7 S0SDQM2 PL11 USB_HDMI_WiFi_BT_Ethernet_LCD_USB1_DM GND S0SA9 S0SDQ24 S0SBA2 GND S0SWE S0SCAS S0SDQS2_N S0SRST NAND_Flash___eMMC__T_Card_and_Audio_HP_DET Net__C63_Pad1_ Net__U1_PadD14_ NAND_Flash___eMMC__T_Card_and_Audio_LINEOUTL PMU_SCK USB_HDMI_WiFi_BT_Ethernet_LCD_BT_WAKE_AP S0SDQS2_P PL9 PL10 PL12 USB_HDMI_WiFi_BT_Ethernet_LCD_HTX2P S0SA8 S0SODT0 GND S0SBA0 S0SDQ19 Net__C61_Pad2_ Net__C61_Pad1_ _1.8V NAND_Flash___eMMC__T_Card_and_Audio_MBIAS Net__U1_PadE16_ AP_RESET_ USB_HDMI_WiFi_BT_Ethernet_LCD_WL_WAKE_AP S0SDQ18 USB_HDMI_WiFi_BT_Ethernet_LCD_HSDA USB_HDMI_WiFi_BT_Ethernet_LCD_HHPD USB_HDMI_WiFi_BT_Ethernet_LCD_HTX2N USB_HDMI_WiFi_BT_Ethernet_LCD_HTX1P S0SDQ16 S0SA7 S0SCS0 S0SODT1 S0SA13 Net__C54_Pad2_ Net__U1_PadF16_ UBOOT S0SDQ17 USB_HDMI_WiFi_BT_Ethernet_LCD_HCEC USB_HDMI_WiFi_BT_Ethernet_LCD_HTX1N S0SA6 S0SRAS S0SDQ1 GND Net__C54_Pad2_ _3.0VA Net__C192_Pad2_ AP_NMI_ Net__HSIC1_Pad3_ Net__R3_Pad2_ NAND_Flash___eMMC__T_Card_and_Audio_NAND0_RE__SDC2_CLK USB_HDMI_WiFi_BT_Ethernet_LCD_HSCL USB_HDMI_WiFi_BT_Ethernet_LCD_HTX0P USB_HDMI_WiFi_BT_Ethernet_LCD_HTX0N Net__R4_Pad2_ S0SA5 S0SVREF GND _1.5V _1.5V _1.5V S0SDQ5 GND Net__R96_Pad1_ _1.1V_CPUS _3.0V_RTC Net__HSIC1_Pad2_ S0SDQ4 NAND_Flash___eMMC__T_Card_and_Audio_NAND0_DQ3__SDC2_D3 USB_HDMI_WiFi_BT_Ethernet_LCD_HTXCP USB_HDMI_WiFi_BT_Ethernet_LCD_HTXCN S0SDQ2 GND S0SCS1 S0SCKE1 GND GND _1.1V_SYS _1.1V_SYS GND GND VCC_PL S0SDQM0 NAND_Flash___eMMC__T_Card_and_Audio_NAND0_DQ6__SDC2_D6 S0SCKE0 _1.5V GND S0SDQ3 GND GND GND GND _1.1V_SYS _1.2V_HSIC NAND_Flash___eMMC__T_Card_and_Audio_NAND0_ALE__SDC2_DS NAND_Flash___eMMC__T_Card_and_Audio_NAND0_RB0__SDC2_CMD S0SDQS0_N NAND_Flash___eMMC__T_Card_and_Audio_NAND0_DQ2__SDC2_D2 Net__C187_Pad1_ Net__R94_Pad1_ S0SDQS0_P S0SA14 S0SA12 _1.5V _1.5V GND GND S0SDQ6 GND GND GND _1.1V_SYS _1.1V_SYS GND _3.3V NAND_Flash___eMMC__T_Card_and_Audio_NAND0_DQ1__SDC2_D1 S0SDQ7 NAND_Flash___eMMC__T_Card_and_Audio_NAND0_DQ5__SDC2_D5 Power_Supply__Extensions_and_MiPi_DSI_DSI_D3N Power_Supply__Extensions_and_MiPi_DSI_DSI_D3P S0SDQ0 GND GND _1.5V _1.5V _1.5V GND GND GND GND _1.1V_SYS _1.1V_SYS GND _3.3VD S0SDQ15 NAND_Flash___eMMC__T_Card_and_Audio_NAND0_DQ0__SDC2_D0 Power_Supply__Extensions_and_MiPi_DSI_DSI_D2P GND S0SA10 GND GND S0SDQ14 GND GND GND GND _1.1V_SYS GND _3.0VA _3.3V _3.3V S0SDQ13 NAND_Flash___eMMC__T_Card_and_Audio_NAND0_DQS__SDC2_RST Power_Supply__Extensions_and_MiPi_DSI_DSI_D2N Power_Supply__Extensions_and_MiPi_DSI_DSI_CKP S0SDQ12 GND S0SA2 S0SA3 _1.5V _1.5V GND S0SDQS1_P GND GND GND GND _1.1V_SYS Net__C188_Pad2_ NAND_Flash___eMMC__T_Card_and_Audio_NAND0_DQ4__SDC2_D4 SPI0_CS S0SDQS1_N SPI0_CLK Power_Supply__Extensions_and_MiPi_DSI_DSI_D1P Power_Supply__Extensions_and_MiPi_DSI_DSI_CKN S0SDQM1 S0SA0 S0SA4 GND GND GND GND GND GND _1.1V_SYS _1.1V_SYS GND VCC_PC S0SDQ11 NAND_Flash___eMMC__T_Card_and_Audio_NAND0_DQ7__SDC2_D7 Power_Supply__Extensions_and_MiPi_DSI_DSI_D1N S0SBA1 S0SA1 GND GND GND GND GND S0SDQ10 GND GND GND GND _3.3V _1.1V_SYS _3.3VWiFiIO PC7 S0SDQ9 PC4 SPI0_MOSI Power_Supply__Extensions_and_MiPi_DSI_DSI_D0P Power_Supply__Extensions_and_MiPi_DSI_DSI_D0N S0SDQ8 S0SA15 VDDFB_CPUX GND GND Net__R7_Pad2_ GND GND _3.3V _3.3V Net__3.3V_VCC_PE_2.8V1_Pad2_ USB_HDMI_WiFi_BT_Ethernet_LCD_WL_SDIO_D0 GND USB_HDMI_WiFi_BT_Ethernet_LCD_WL_SDIO_CMD USB1_DRV USB_HDMI_WiFi_BT_Ethernet_LCD_BT_PCM_DOUT USB_HDMI_WiFi_BT_Ethernet_LCD_BT_UART_TX S0SA11 GND _1.1V_CPUX GND GND GND Net__DBG_UART1_Pad1_ GND USB_HDMI_WiFi_BT_Ethernet_LCD_GRXD3_LCD_D12 USB_HDMI_WiFi_BT_Ethernet_LCD_LCD_D6 _1.1V_CPUX USB_HDMI_WiFi_BT_Ethernet_LCD_WL_SDIO_CLK USB_HDMI_WiFi_BT_Ethernet_LCD_WL_SDIO_D1 _1.1V_CPUX _1.1V_CPUX _1.1V_CPUX _1.1V_CPUX GND Power_Supply__Extensions_and_MiPi_DSI_PB0 _1.1V_CPUX Power_Supply__Extensions_and_MiPi_DSI_PB2 TWI0_SCK NAND_Flash___eMMC__T_Card_and_Audio_SDC0_D0 USB_HDMI_WiFi_BT_Ethernet_LCD_GRXD1_LCD_D14 Power_Supply__Extensions_and_MiPi_DSI_PE5 USB_HDMI_WiFi_BT_Ethernet_LCD_LCD_D4 Power_Supply__Extensions_and_MiPi_DSI_PE6 Power_Supply__Extensions_and_MiPi_DSI_PE11 Power_Supply__Extensions_and_MiPi_DSI_PE17__GPIO_LED USB_HDMI_WiFi_BT_Ethernet_LCD_WL_SDIO_D3 _1.1V_CPUX _1.1V_CPUX _1.1V_CPUX Power_Supply__Extensions_and_MiPi_DSI_PB4 Power_Supply__Extensions_and_MiPi_DSI_MIPI_DSI_BKL NAND_Flash___eMMC__T_Card_and_Audio_SDC0_CMD USB_HDMI_WiFi_BT_Ethernet_LCD_PH8_CTP_RST USB_HDMI_WiFi_BT_Ethernet_LCD_LCD_D10 USB_HDMI_WiFi_BT_Ethernet_LCD_GMDC_LCD_PWM USB_HDMI_WiFi_BT_Ethernet_LCD_EPHY_RST_ USB_HDMI_WiFi_BT_Ethernet_LCD_GRXD0_LCD_D15 Power_Supply__Extensions_and_MiPi_DSI_PE9 Power_Supply__Extensions_and_MiPi_DSI_PE7 _1.1V_CPUX USB_HDMI_WiFi_BT_Ethernet_LCD_WL_SDIO_D2 Power_Supply__Extensions_and_MiPi_DSI_PE13 Power_Supply__Extensions_and_MiPi_DSI_PE15 _1.1V_CPUX _1.1V_CPUX Power_Supply__Extensions_and_MiPi_DSI_MIPI_DSI_EN Net__D4_Pad2_ PH10 AllWinner-A64(FBGA396)
  XC37 GND Net__C37_Pad2_ C
  XC38 GND Net__C37_Pad2_ C
  XC36 GND VCC_PC C
  XC35 GND VCC_PC C
  XC43 Net__C42_Pad1_ GND C
  XC44 Net__C42_Pad1_ GND C
  XL1 _3.3V Net__C42_Pad1_ L
  XC42 Net__C42_Pad1_ GND C
  XR21 NAND_Flash___eMMC__T_Card_and_Audio_NAND0_RB0__SDC2_CMD VCC_PC R
  XR23 NAND_Flash___eMMC__T_Card_and_Audio_NAND0_DQS__SDC2_RST VCC_PC R
  XC34 GND VCC_PC C
  XMICRO_SD1 NAND_Flash___eMMC__T_Card_and_Audio_SDC0_D2 GND GND GND GND NAND_Flash___eMMC__T_Card_and_Audio_SDC0_D3 NAND_Flash___eMMC__T_Card_and_Audio_SDC0_CMD Net__C64_Pad1_ Net__MICRO_SD1_Pad5_ GND NAND_Flash___eMMC__T_Card_and_Audio_SDC0_D0 NAND_Flash___eMMC__T_Card_and_Audio_SDC0_D1 NAND_Flash___eMMC__T_Card_and_Audio_SDC0_DET_ MICRO_SD(TFC-WPAPR-08)
  XR33 Net__MICRO_SD1_Pad5_ NAND_Flash___eMMC__T_Card_and_Audio_SDC0_CLK R
  XC64 Net__C64_Pad1_ GND C
  XL2 _3.3V Net__C64_Pad1_ L
  XRM7 _3.3V NAND_Flash___eMMC__T_Card_and_Audio_SDC0_D0 _3.3V NAND_Flash___eMMC__T_Card_and_Audio_SDC0_D1 _3.3V NAND_Flash___eMMC__T_Card_and_Audio_SDC0_DET_ _3.3V NAND_Flash___eMMC__T_Card_and_Audio_SDC0_D2 RA1206_(4x0603)_4B8_Smashed
  XR31 NAND_Flash___eMMC__T_Card_and_Audio_SDC0_CMD _3.3V R
  XR30 NAND_Flash___eMMC__T_Card_and_Audio_SDC0_D3 _3.3V R
  XC46 _3.0VA GNDA C
  XC49 _3.0VA GNDA C
  XC51 Net__C51_Pad1_ GNDA C
  XC53 Net__C51_Pad1_ GNDA C
  XC55 Net__C55_Pad1_ GNDA C
  XR27 Net__C59_Pad1_ GNDA R
  XC59 Net__C59_Pad1_ GNDA C
  XC63 Net__C63_Pad1_ GNDA C
  XMIC_LINEIN1 Net__LINEINL_MICIN2_Pad2_ GNDA Net__LINEINR_MICIN1_Pad2_ Net__MIC_LINEIN1_Pad4_ Net__MIC_LINEIN1_Pad5_ AUDIO_JACK(SCJ325P00XG0B02G)
  XC48 GNDA Net__C48_Pad2_ C
  XC62 Net__C62_Pad1_ GNDA C
  XC52 Net__C52_Pad1_ NAND_Flash___eMMC__T_Card_and_Audio_MICIN1P C
  XC60 Net__C60_Pad1_ NAND_Flash___eMMC__T_Card_and_Audio_MICIN2P C
  XR26 Net__C60_Pad1_ Net__C57_Pad2_ R
  XR25 Net__C57_Pad2_ NAND_Flash___eMMC__T_Card_and_Audio_MBIAS R
  XC57 GNDA Net__C57_Pad2_ C
  XR29 Net__C52_Pad1_ Net__C57_Pad2_ R
  XHEADPHONES_LINEOUT1 Net__HEADPHONES_LINEOUT1_Pad1_ Net__HEADPHONES_LINEOUT1_Pad2_ Net__HEADPHONES_LINEOUT1_Pad3_ Net__HEADPHONES_LINEOUT1_Pad4_ Net__HEADPHONES_LINEOUT1_Pad5_ AUDIO_JACK(SCJ325P00XG0B02G)
  XL3 Net__HPHONEOUTR_LINEOUTR1_Pad2_ Net__HEADPHONES_LINEOUT1_Pad3_ L
  XL4 NAND_Flash___eMMC__T_Card_and_Audio_HPOUTFB Net__HEADPHONES_LINEOUT1_Pad2_ L
  XL5 Net__HPHONEOUTL_LINEOUTL1_Pad2_ Net__HEADPHONES_LINEOUT1_Pad1_ L
  XC65 GNDA Net__C65_Pad2_ C
  XC66 GNDA Net__C66_Pad2_ C
  XR35 GNDA NAND_Flash___eMMC__T_Card_and_Audio_HPOUTR R
  XR32 Net__HEADPHONES_LINEOUT1_Pad4_ _3.0VA R
  XR34 GNDA NAND_Flash___eMMC__T_Card_and_Audio_HPOUTFB R
  XC61 Net__C61_Pad1_ Net__C61_Pad2_ C
  XC54 GNDA Net__C54_Pad2_ C
  XC56 GNDA Net__C54_Pad2_ C
  XC50 GNDA _1.8V C
  XC47 GNDA _1.8V C
  XR36 GND GNDA R
  XU12 SPI0_CS SPI0_MISO Net__R55_Pad1_ GND SPI0_MOSI SPI0_CLK Net__R57_Pad1_ _3.3V W25Q16BV
  XC81 GND _3.3V C
  XR57 Net__R57_Pad1_ _3.3V R
  XR56 Net__R55_Pad1_ _3.3V R
  XR55 Net__R55_Pad1_ GND R
  XR53 SPI0_CS _3.3V R
  XLINEINR_MICIN1 Net__C52_Pad1_ Net__LINEINR_MICIN1_Pad2_ Net__C45_Pad1_ SJ2W_Closed(1-2)
  XLINEINL_MICIN2 Net__C60_Pad1_ Net__LINEINL_MICIN2_Pad2_ Net__C58_Pad1_ SJ2W_Closed(1-2)
  XR59 Net__HEADPHONES_LINEOUT1_Pad4_ NAND_Flash___eMMC__T_Card_and_Audio_HP_DET R
  XR63 Net__C65_Pad2_ NAND_Flash___eMMC__T_Card_and_Audio_HPOUTL R
  XR64 Net__C66_Pad2_ NAND_Flash___eMMC__T_Card_and_Audio_HPOUTR R
  XHPHONEOUTR_LINEOUTR1 NAND_Flash___eMMC__T_Card_and_Audio_HPOUTR Net__HPHONEOUTR_LINEOUTR1_Pad2_ Net__C86_Pad2_ SJ2W_Closed(1-2)
  XHPHONEOUTL_LINEOUTL1 NAND_Flash___eMMC__T_Card_and_Audio_HPOUTL Net__HPHONEOUTL_LINEOUTL1_Pad2_ Net__C87_Pad2_ SJ2W_Closed(1-2)
  XC45 Net__C45_Pad1_ NAND_Flash___eMMC__T_Card_and_Audio_LINEINR C
  XC58 Net__C58_Pad1_ NAND_Flash___eMMC__T_Card_and_Audio_LINEINL C
  XC82 Net__C48_Pad2_ NAND_Flash___eMMC__T_Card_and_Audio_MICIN1N C
  XC83 Net__C62_Pad1_ NAND_Flash___eMMC__T_Card_and_Audio_MICIN2N C
  XC84 Net__C52_Pad1_ Net__C48_Pad2_ C
  XC85 Net__C60_Pad1_ Net__C62_Pad1_ C
  XC86 NAND_Flash___eMMC__T_Card_and_Audio_LINEOUTR Net__C86_Pad2_ C
  XC87 NAND_Flash___eMMC__T_Card_and_Audio_LINEOUTL Net__C87_Pad2_ C
  XGNDA1 GNDA TESTPAD
  XMounting_hole1 GND Mounting_hole
  XMounting_hole2 GND Mounting_hole
  XMounting_hole3 GND Mounting_hole
  XU5 NAND_Flash___eMMC__T_Card_and_Audio_NAND0_DQ0__SDC2_D0 NAND_Flash___eMMC__T_Card_and_Audio_NAND0_DQ1__SDC2_D1 NAND_Flash___eMMC__T_Card_and_Audio_NAND0_DQ2__SDC2_D2 GND NAND_Flash___eMMC__T_Card_and_Audio_NAND0_DQ3__SDC2_D3 NAND_Flash___eMMC__T_Card_and_Audio_NAND0_DQ4__SDC2_D4 NAND_Flash___eMMC__T_Card_and_Audio_NAND0_DQ5__SDC2_D5 NAND_Flash___eMMC__T_Card_and_Audio_NAND0_DQ6__SDC2_D6 NAND_Flash___eMMC__T_Card_and_Audio_NAND0_DQ7__SDC2_D7 Net__C37_Pad2_ GND VCC_PC Net__C42_Pad1_ GND Net__C42_Pad1_ GND GND Net__R15_Pad1_ Net__C42_Pad1_ GND NAND_Flash___eMMC__T_Card_and_Audio_NAND0_DQS__SDC2_RST GND Net__C42_Pad1_ VCC_PC NAND_Flash___eMMC__T_Card_and_Audio_NAND0_RB0__SDC2_CMD NAND_Flash___eMMC__T_Card_and_Audio_eMMC_CLK GND VCC_PC GND VCC_PC GND VCC_PC GND KLMAG2GEND-B031(FBGA153)
  XR67 NAND_Flash___eMMC__T_Card_and_Audio_NAND0_DQ0__SDC2_D0 VCC_PC R
  XWP_Enable1 GND Net__R55_Pad1_ SJ
  XR68 NAND_Flash___eMMC__T_Card_and_Audio_eMMC_CLK NAND_Flash___eMMC__T_Card_and_Audio_NAND0_RE__SDC2_CLK R
  XC94 NAND_Flash___eMMC__T_Card_and_Audio_eMMC_CLK GND C
  XR66 SPI0_MISO NAND_Flash___eMMC__T_Card_and_Audio_NAND0_ALE__SDC2_DS R
  XR62 NAND_Flash___eMMC__T_Card_and_Audio_NAND0_ALE__SDC2_DS GND R
  XR15 Net__R15_Pad1_ NAND_Flash___eMMC__T_Card_and_Audio_NAND0_ALE__SDC2_DS R
  XHDMI1 GND GND GND GND USB_HDMI_WiFi_BT_Ethernet_LCD_HTX2P USB_HDMI_WiFi_BT_Ethernet_LCD_HTXCP GND USB_HDMI_WiFi_BT_Ethernet_LCD_HTXCN Net__FET1_Pad3_ Net__HDMI1_Pad14_ USB_HDMI_WiFi_BT_Ethernet_LCD_HSCL USB_HDMI_WiFi_BT_Ethernet_LCD_HSDA GND Net__D3_Pad1_ Net__HDMI1_Pad19_ GND USB_HDMI_WiFi_BT_Ethernet_LCD_HTX2N USB_HDMI_WiFi_BT_Ethernet_LCD_HTX1P GND USB_HDMI_WiFi_BT_Ethernet_LCD_HTX1N USB_HDMI_WiFi_BT_Ethernet_LCD_HTX0P GND USB_HDMI_WiFi_BT_Ethernet_LCD_HTX0N HDMI-SWM-19
  XU7 USB_HDMI_WiFi_BT_Ethernet_LCD_HTX2P USB_HDMI_WiFi_BT_Ethernet_LCD_HTX2P USB_HDMI_WiFi_BT_Ethernet_LCD_HTX2N GND USB_HDMI_WiFi_BT_Ethernet_LCD_HTX1P USB_HDMI_WiFi_BT_Ethernet_LCD_HTX1N USB_HDMI_WiFi_BT_Ethernet_LCD_HTX1N USB_HDMI_WiFi_BT_Ethernet_LCD_HTX1P GND USB_HDMI_WiFi_BT_Ethernet_LCD_HTX2N RCLAMP0524P
  XU8 USB_HDMI_WiFi_BT_Ethernet_LCD_HTX0P USB_HDMI_WiFi_BT_Ethernet_LCD_HTX0P USB_HDMI_WiFi_BT_Ethernet_LCD_HTX0N GND USB_HDMI_WiFi_BT_Ethernet_LCD_HTXCP USB_HDMI_WiFi_BT_Ethernet_LCD_HTXCN USB_HDMI_WiFi_BT_Ethernet_LCD_HTXCN USB_HDMI_WiFi_BT_Ethernet_LCD_HTXCP GND USB_HDMI_WiFi_BT_Ethernet_LCD_HTX0N RCLAMP0524P
  XU10 USB_HDMI_WiFi_BT_Ethernet_LCD_HCEC USB_HDMI_WiFi_BT_Ethernet_LCD_HCEC USB_HDMI_WiFi_BT_Ethernet_LCD_HSCL GND USB_HDMI_WiFi_BT_Ethernet_LCD_HSDA USB_HDMI_WiFi_BT_Ethernet_LCD_HHPD USB_HDMI_WiFi_BT_Ethernet_LCD_HHPD USB_HDMI_WiFi_BT_Ethernet_LCD_HSDA GND USB_HDMI_WiFi_BT_Ethernet_LCD_HSCL RCLAMP0524P
  XR51 USB_HDMI_WiFi_BT_Ethernet_LCD_HHPD Net__HDMI1_Pad19_ R
  XR52 USB_HDMI_WiFi_BT_Ethernet_LCD_HHPD GND R
  XFET1 _3.3VD USB_HDMI_WiFi_BT_Ethernet_LCD_HCEC Net__FET1_Pad3_ N-MOS+DIOD_Small
  XR46 _3.3VD USB_HDMI_WiFi_BT_Ethernet_LCD_HCEC R
  XR50 _5V USB_HDMI_WiFi_BT_Ethernet_LCD_HSDA R
  XR47 _5V USB_HDMI_WiFi_BT_Ethernet_LCD_HSCL R
  XR39 USB_HDMI_WiFi_BT_Ethernet_LCD_HTX2N USB_HDMI_WiFi_BT_Ethernet_LCD_HTX2P R
  XR43 USB_HDMI_WiFi_BT_Ethernet_LCD_HTX1P USB_HDMI_WiFi_BT_Ethernet_LCD_HTX1N R
  XR44 USB_HDMI_WiFi_BT_Ethernet_LCD_HTX0N USB_HDMI_WiFi_BT_Ethernet_LCD_HTX0P R
  XR45 USB_HDMI_WiFi_BT_Ethernet_LCD_HTXCP USB_HDMI_WiFi_BT_Ethernet_LCD_HTXCN R
  XC79 GND _3.3VD C
  XUSB_OTG1 GND GND GND GND _5V_USBOTG USB0_D_N USB0_D_P USB_HDMI_WiFi_BT_Ethernet_LCD_USB0_ID GND USB-MINI
  XR37 USB_HDMI_WiFi_BT_Ethernet_LCD_USB0_ID _3.3V R
  XU6 Net__C68_Pad2_ GND Net__R41_Pad2_ USB0_DRV _5V SY6280AAC(SOT23-5)
  XL6 Net__C68_Pad2_ _5V_USBOTG L
  XC67 _5V_USBOTG GND C
  XC70 GND Net__C68_Pad2_ C
  XC69 GND Net__C68_Pad2_ C
  XC68 GND Net__C68_Pad2_ C
  XR41 GND Net__R41_Pad2_ R
  XR38 USB_HDMI_WiFi_BT_Ethernet_LCD_USB0_VBUSDET Net__C68_Pad2_ R
  XR42 GND USB_HDMI_WiFi_BT_Ethernet_LCD_USB0_VBUSDET R
  XC72 GND USB_HDMI_WiFi_BT_Ethernet_LCD_USB0_VBUSDET C
  XR40 GND USB0_DRV R
  XC71 _5V GND C
  XU9 Net__C75_Pad2_ GND Net__R49_Pad2_ USB1_DRV _5V SY6280AAC(SOT23-5)
  XL8 Net__C75_Pad2_ Net__C74_Pad1_ L
  XC74 Net__C74_Pad1_ GND C
  XC77 GND Net__C75_Pad2_ C
  XC76 GND Net__C75_Pad2_ C
  XC75 GND Net__C75_Pad2_ C
  XR49 GND Net__R49_Pad2_ R
  XR48 GND USB1_DRV R
  XC78 _5V GND C
  XC73 GND _3.3V C
  XC110 GND _3.3VWiFiIO C