* Spice Netlist (renamed)

*--- Top Level ---
.subckt HDMI2USB DDR3_DDR0_A0 DDR3_DDR0_A1 DDR3_DDR0_A10 DDR3_DDR0_A11 DDR3_DDR0_A12 DDR3_DDR0_A13 DDR3_DDR0_A14 DDR3_DDR0_A2 DDR3_DDR0_A3 DDR3_DDR0_A4 DDR3_DDR0_A5 DDR3_DDR0_A6 DDR3_DDR0_A7 DDR3_DDR0_A8 DDR3_DDR0_A9 DDR3_DDR0_BA0 DDR3_DDR0_BA1 DDR3_DDR0_BA2 DDR3_DDR0_CAS_N DDR3_DDR0_CKE DDR3_DDR0_CK_N DDR3_DDR0_CK_P DDR3_DDR0_DQ0 DDR3_DDR0_DQ1 DDR3_DDR0_DQ10 DDR3_DDR0_DQ11 DDR3_DDR0_DQ12 DDR3_DDR0_DQ13 DDR3_DDR0_DQ14 DDR3_DDR0_DQ15 DDR3_DDR0_DQ2 DDR3_DDR0_DQ3 DDR3_DDR0_DQ4 DDR3_DDR0_DQ5 DDR3_DDR0_DQ6 DDR3_DDR0_DQ7 DDR3_DDR0_DQ8 DDR3_DDR0_DQ9 DDR3_DDR0_LDM DDR3_DDR0_LDQS_N DDR3_DDR0_LDQS_P DDR3_DDR0_ODT DDR3_DDR0_RAS_N DDR3_DDR0_RESET_N DDR3_DDR0_UDM DDR3_DDR0_UDQS_N DDR3_DDR0_UDQS_P DDR3_DDR0_WE_N DisplayPort_DPRXAUXCH_N DisplayPort_DPRXAUXCH_P DisplayPort_DPRXCONFIG1 DisplayPort_DPRXCONFIG2 DisplayPort_DPRX_LANEN0 DisplayPort_DPRX_LANEN1 DisplayPort_DPRX_LANEN2 DisplayPort_DPRX_LANEN3 DisplayPort_DPRX_LANEP0 DisplayPort_DPRX_LANEP1 DisplayPort_DPRX_LANEP2 DisplayPort_DPRX_LANEP3 DisplayPort_DPTXAUXCH_N DisplayPort_DPTXAUXCH_P DisplayPort_DPTXCONFIG1 DisplayPort_DPTXCONFIG2 DisplayPort_DPTX_LANEN0 DisplayPort_DPTX_LANEN1 DisplayPort_DPTX_LANEN2 DisplayPort_DPTX_LANEN3 DisplayPort_DPTX_LANEP0 DisplayPort_DPTX_LANEP1 DisplayPort_DPTX_LANEP2 DisplayPort_DPTX_LANEP3 Ethernet_AVDD3V3 Ethernet_ETH_INT_B Ethernet_ETH_MDC Ethernet_ETH_MDIO Ethernet_ETH_RESET_B Ethernet_ETH_RXCLK Ethernet_ETH_RXCTL Ethernet_ETH_RXD0 Ethernet_ETH_RXD1 Ethernet_ETH_RXD2 Ethernet_ETH_RXD3 Ethernet_ETH_TXCLK Ethernet_ETH_TXCTL Ethernet_ETH_TXD0 Ethernet_ETH_TXD1 Ethernet_ETH_TXD2 Ethernet_ETH_TXD3 Ethernet_ETH_VCC1V0 Ethernet_ETH_VCC3V3 Ethernet_LED0 Ethernet_LED1 Ethernet_MAC_SCL Ethernet_MAC_SDA Ethernet_MAC_WP Ethernet_VCC1V0 Ethernet_XTAL1_50MHZ Ethernet_XTAL2_50MHZ FPGA_Bank_0_3_DEBUG_IO0 FPGA_Bank_0_3_DEBUG_IO1 FPGA_Bank_0_3_DIFFCLK_A0N FPGA_Bank_0_3_DIFFCLK_A0P FPGA_Bank_0_3_DIFFCLK_A1N FPGA_Bank_0_3_DIFFCLK_A1P FPGA_Bank_0_3_DIFFCLK_B0N FPGA_Bank_0_3_DIFFCLK_B0P FPGA_Bank_0_3_DIFFCLK_B1N FPGA_Bank_0_3_DIFFCLK_B1P FPGA_Bank_0_3_DIFFCLK_XN FPGA_Bank_0_3_DIFFCLK_XP FPGA_Bank_0_3_DIFFIO_A0N FPGA_Bank_0_3_DIFFIO_A0P FPGA_Bank_0_3_DIFFIO_A1N FPGA_Bank_0_3_DIFFIO_A1P FPGA_Bank_0_3_DIFFIO_A2N FPGA_Bank_0_3_DIFFIO_A2P FPGA_Bank_0_3_DIFFIO_A3N FPGA_Bank_0_3_DIFFIO_A3P FPGA_Bank_0_3_DIFFIO_A4N FPGA_Bank_0_3_DIFFIO_A4P FPGA_Bank_0_3_DIFFIO_A5N FPGA_Bank_0_3_DIFFIO_A5P FPGA_Bank_0_3_DIFFIO_A6N FPGA_Bank_0_3_DIFFIO_A6P FPGA_Bank_0_3_DIFFIO_B0N FPGA_Bank_0_3_DIFFIO_B0P FPGA_Bank_0_3_DIFFIO_B1N FPGA_Bank_0_3_DIFFIO_B1P FPGA_Bank_0_3_DIFFIO_B2N FPGA_Bank_0_3_DIFFIO_B2P FPGA_Bank_0_3_DIFFIO_B3N FPGA_Bank_0_3_DIFFIO_B3P FPGA_Bank_0_3_DIFFIO_B4N FPGA_Bank_0_3_DIFFIO_B4P FPGA_Bank_0_3_DIFFIO_B5N FPGA_Bank_0_3_DIFFIO_B5P FPGA_Bank_0_3_DIFFIO_B6N FPGA_Bank_0_3_DIFFIO_B6P FPGA_Bank_0_3_DIFFIO_XN FPGA_Bank_0_3_DIFFIO_XP FPGA_Bank_0_3_DIFFIO_YN FPGA_Bank_0_3_DIFFIO_YP FPGA_Bank_0_3_DIFFIO_ZN FPGA_Bank_0_3_DIFFIO_ZP FPGA_Bank_0_3_HSWAP FPGA_Bank_0_3_MGT135MHz_N FPGA_Bank_0_3_MGT135MHz_P FPGA_Bank_0_3_MGTREFCLK0_101_N FPGA_Bank_0_3_MGTREFCLK0_101_P FPGA_Bank_0_3_MGTSMACLK_N FPGA_Bank_0_3_MGTSMACLK_P FPGA_Bank_0_3_PCIE_RESET FPGA_Bank_0_3_PCIO0 FPGA_Bank_0_3_PCIO1 FPGA_Bank_0_3_PCIO2 FPGA_Bank_0_3_PCIO3 FPGA_Bank_0_3_SMCLK FPGA_Bank_0_3_SMDATA FPGA_Bank_0_3_SWITCH FPGA_Bank_1_2_100MHz FPGA_Bank_1_2_CYPRESS_RESET FPGA_Bank_1_2_CY_CTL0 FPGA_Bank_1_2_CY_CTL1 FPGA_Bank_1_2_CY_CTL2 FPGA_Bank_1_2_CY_CTL3 FPGA_Bank_1_2_CY_CTL4 FPGA_Bank_1_2_CY_CTL5 FPGA_Bank_1_2_CY_FD0 FPGA_Bank_1_2_CY_FD1 FPGA_Bank_1_2_CY_FD10 FPGA_Bank_1_2_CY_FD11 FPGA_Bank_1_2_CY_FD12 FPGA_Bank_1_2_CY_FD13 FPGA_Bank_1_2_CY_FD14 FPGA_Bank_1_2_CY_FD15 FPGA_Bank_1_2_CY_FD2 FPGA_Bank_1_2_CY_FD3 FPGA_Bank_1_2_CY_FD4 FPGA_Bank_1_2_CY_FD5 FPGA_Bank_1_2_CY_FD6 FPGA_Bank_1_2_CY_FD7 FPGA_Bank_1_2_CY_FD8 FPGA_Bank_1_2_CY_FD9 FPGA_Bank_1_2_CY_IFCLK FPGA_Bank_1_2_CY_INT5 FPGA_Bank_1_2_CY_PA0 FPGA_Bank_1_2_CY_PA1 FPGA_Bank_1_2_CY_PA2 FPGA_Bank_1_2_CY_PA3 FPGA_Bank_1_2_CY_PA4 FPGA_Bank_1_2_CY_PA5 FPGA_Bank_1_2_CY_PA6 FPGA_Bank_1_2_CY_PA7 FPGA_Bank_1_2_CY_PC0 FPGA_Bank_1_2_CY_PC1 FPGA_Bank_1_2_CY_PC2 FPGA_Bank_1_2_CY_PC3 FPGA_Bank_1_2_CY_PC4 FPGA_Bank_1_2_CY_PC5 FPGA_Bank_1_2_CY_PC6 FPGA_Bank_1_2_CY_PC7 FPGA_Bank_1_2_CY_RD FPGA_Bank_1_2_CY_RD0 FPGA_Bank_1_2_CY_RD1 FPGA_Bank_1_2_CY_RD2 FPGA_Bank_1_2_CY_RD3 FPGA_Bank_1_2_CY_RD4 FPGA_Bank_1_2_CY_RD5 FPGA_Bank_1_2_CY_RXD0 FPGA_Bank_1_2_CY_RXD1 FPGA_Bank_1_2_CY_T0 FPGA_Bank_1_2_CY_TXD0 FPGA_Bank_1_2_CY_TXD1 FPGA_Bank_1_2_CY_WR FPGA_Bank_1_2_DPRXHPD FPGA_Bank_1_2_DPTXHPD FPGA_Bank_1_2_FPGA_M0_CMP_MISO FPGA_Bank_1_2_FPGA_M1 FPGA_Bank_1_2_INIT_B FPGA_Bank_1_2_SD_CLK FPGA_Bank_1_2_SD_CMD FPGA_Bank_1_2_SD_DAT0 FPGA_Bank_1_2_SD_DAT1 FPGA_Bank_1_2_SD_DAT2 FPGA_Bank_1_2_SD_DAT3 FPGA_Bank_1_2_SPI_CLK FPGA_Bank_1_2_SPI_CS_N FPGA_Bank_1_2_SPI_D1_MISO2 FPGA_Bank_1_2_SPI_D2_MISO3 FPGA_Bank_1_2_SPI_DO_DIN_MISO1 FPGA_Bank_1_2_SPI_MOSI_CSI_N_MISO0 FPGA_Bank_1_2_TMDS_RX1_0_N FPGA_Bank_1_2_TMDS_RX1_0_P FPGA_Bank_1_2_TMDS_RX1_1_N FPGA_Bank_1_2_TMDS_RX1_1_P FPGA_Bank_1_2_TMDS_RX1_2_N FPGA_Bank_1_2_TMDS_RX1_2_P FPGA_Bank_1_2_TMDS_RX1_CEC FPGA_Bank_1_2_TMDS_RX1_CLK_N FPGA_Bank_1_2_TMDS_RX1_CLK_P FPGA_Bank_1_2_TMDS_RX1_HOT FPGA_Bank_1_2_TMDS_RX1_SCL FPGA_Bank_1_2_TMDS_RX1_SDA FPGA_Bank_1_2_TMDS_RX2_0_N FPGA_Bank_1_2_TMDS_RX2_0_P FPGA_Bank_1_2_TMDS_RX2_1_N FPGA_Bank_1_2_TMDS_RX2_1_P FPGA_Bank_1_2_TMDS_RX2_2_N FPGA_Bank_1_2_TMDS_RX2_2_P FPGA_Bank_1_2_TMDS_RX2_CEC FPGA_Bank_1_2_TMDS_RX2_CLK_N FPGA_Bank_1_2_TMDS_RX2_CLK_P FPGA_Bank_1_2_TMDS_RX2_HOT FPGA_Bank_1_2_TMDS_RX2_SCL FPGA_Bank_1_2_TMDS_RX2_SDA FPGA_Bank_1_2_TMDS_TX1_0_N FPGA_Bank_1_2_TMDS_TX1_0_P FPGA_Bank_1_2_TMDS_TX1_1_N FPGA_Bank_1_2_TMDS_TX1_1_P FPGA_Bank_1_2_TMDS_TX1_2_N FPGA_Bank_1_2_TMDS_TX1_2_P FPGA_Bank_1_2_TMDS_TX1_CEC FPGA_Bank_1_2_TMDS_TX1_CLK_N FPGA_Bank_1_2_TMDS_TX1_CLK_P FPGA_Bank_1_2_TMDS_TX1_HOT FPGA_Bank_1_2_TMDS_TX1_SCL FPGA_Bank_1_2_TMDS_TX1_SDA FPGA_Bank_1_2_TMDS_TX2_0_N FPGA_Bank_1_2_TMDS_TX2_0_P FPGA_Bank_1_2_TMDS_TX2_1_N FPGA_Bank_1_2_TMDS_TX2_1_P FPGA_Bank_1_2_TMDS_TX2_2_N FPGA_Bank_1_2_TMDS_TX2_2_P FPGA_Bank_1_2_TMDS_TX2_CEC FPGA_Bank_1_2_TMDS_TX2_CLK_N FPGA_Bank_1_2_TMDS_TX2_CLK_P FPGA_Bank_1_2_TMDS_TX2_HOT FPGA_Bank_1_2_TMDS_TX2_SCL FPGA_Bank_1_2_TMDS_TX2_SDA FPGA_Bank_1_2_USB_D0 FPGA_Bank_1_2_USB_D1 FPGA_Bank_1_2_USB_D2 FPGA_Bank_1_2_USB_D3 FPGA_Bank_1_2_USB_D4 FPGA_Bank_1_2_USB_D5 FPGA_Bank_1_2_USB_D6 FPGA_Bank_1_2_USB_D7 FPGA_Bank_1_2_USB_DIR FPGA_Bank_1_2_USB_NXT FPGA_Bank_1_2_USB_REFCLK FPGA_Bank_1_2_USB_RESETB FPGA_Bank_1_2_USB_STP FPGA_Power_DONE FPGA_Power_PROG_B FPGA_Power_RFS FPGA_Power_SUSPEND FPGA_Power_TCK FPGA_Power_TMS FPGA_Power_VBATT FPGA_Power_VFS GND GPIOs_PRSNT HDMI_HDMI_TX1_VCC5V0 HDMI_HDMI_TX2_VCC5V0 HDMI_HDMI_VCC5V0 HDMI_P1_CEC HDMI_P1_HOT HDMI_P1_SCL HDMI_P1_SDA HDMI_P2_CEC HDMI_P2_HOT HDMI_P2_SCL HDMI_P2_SDA HDMI_P3_CEC HDMI_P3_HOT HDMI_P3_SCL HDMI_P3_SDA HDMI_P4_CEC HDMI_P4_HOT HDMI_P4_SCL HDMI_P4_SDA Power_Conference_12V Power_Consumer_12V Power_VIN_48 Power_VIN__48V Power_VIN__48V_0 SPI_Flash_27MHz SPI_Flash_RST SPI_Flash_TDO_FPGA_TDO_JTAG SPI_Flash_TDO_USB_TDI_FPGA USB_CPEN USB_CYDN USB_CYDP USB_CYP_RESET USB_ID USB_U1_SDA USB_USB_5V USB_USB_DM USB_USB_DP USB_XTALIN USB_XTALIOUT VCC12V0 VCC1V2 VCC1V5 VCC3V3 VCC4V0 VTTDDR0 VTTREF unnamed
  XU8 VCC1V5 unnamed unnamed unnamed VCC12V0 VCC12V0 GND unnamed unnamed unnamed GND unnamed unnamed GND GND TPS54625
  XC150 unnamed unnamed C
  XL4 unnamed VCC1V5 INDUCTOR
  XR112 VCC1V5 unnamed R
  XR113 unnamed GND R
  XC143 GND unnamed C
  XR102 unnamed unnamed R
  XC137 GND unnamed C
  XR100 VCC12V0 unnamed R
  XC133 GND VCC12V0 C
  XC79 GND VCC12V0 C
  XC161 GND VCC1V5 C
  XU9 VCC1V2 unnamed unnamed unnamed VCC12V0 VCC12V0 GND unnamed unnamed unnamed GND unnamed unnamed GND GND TPS54625
  XC152 unnamed unnamed C
  XL5 unnamed VCC1V2 INDUCTOR
  XR114 VCC1V2 unnamed R
  XR115 unnamed GND R
  XC144 GND unnamed C
  XR104 unnamed unnamed R
  XC141 GND unnamed C
  XR103 VCC12V0 unnamed R
  XC140 GND VCC12V0 C
  XC134 GND VCC12V0 C
  XC164 GND VCC1V2 C
  XU7 unnamed unnamed unnamed VCC12V0 VCC12V0 VCC12V0 VCC12V0 VCC12V0 VCC12V0 unnamed VCC12V0 unnamed unnamed unnamed unnamed GND unnamed unnamed unnamed unnamed unnamed unnamed unnamed TPS53319
  XR107 GND unnamed R
  XC148 GND unnamed C
  XR108 unnamed unnamed R
  XC149 unnamed unnamed C
  XR98 unnamed GND R
  XR95 VCC12V0 unnamed R
  XR96 unnamed GND R
  XR97 unnamed unnamed R
  XC77 GND VCC12V0 C
  XC75 GND VCC12V0 C
  XC72 GND VCC12V0 C
  XL3 unnamed VCC4V0 INDUCTOR
  XR109 unnamed unnamed R
  XC154 VCC4V0 unnamed C
  XC151 unnamed unnamed C
  XR110 unnamed VCC4V0 R
  XR111 GND unnamed R
  XC157 GND VCC4V0 C
  XC59 GND Power_Consumer_12V C
  XC61 GND Power_Consumer_12V C
  XR101 VCC1V5 unnamed R
  XR105 unnamed GND R
  XC146 unnamed GND C
  XC81 GND VCC1V5 C
  XC138 GND VCC1V5 C
  XC156 GND VTTDDR0 C
  XC159 GND VTTDDR0 C
  XC162 GND VTTDDR0 C
  XR106 unnamed VCC3V3 R
  XC147 GND VCC3V3 C
  XC153 GND VTTREF C
  XC73 GND VCC12V0 C
  XC74 GND VCC12V0 C
  XC78 VCC12V0 GND C
  XC135 VCC12V0 GND C
  XC165 GND VCC1V5 C
  XC160 GND VCC4V0 C
  XC163 GND VCC4V0 C
  XC136 VCC1V5 GND C
  XC76 GND VCC1V5 C
  XC166 GND VTTDDR0 C
  XC168 GND VTTDDR0 C
  XC167 GND VCC1V2 C
  XC139 GND VCC12V0 C
  XC145 GND VCC12V0 C
  XR99 unnamed GND R
  XC155 unnamed VCC1V5 C
  XC142 VCC12V0 GND C
  XC158 VCC1V2 unnamed C
  XC80 VCC12V0 GND C
  XP1 Power_VIN__48V Power_VIN__48V_0 CONN_2
  XU6 unnamed Power_VIN_48 unnamed unnamed unnamed unnamed GND unnamed GND TPS54560
  XU4 Power_VIN_48 Power_VIN__48V_0 Power_VIN__48V GND GBU15005-G
  XC60 unnamed unnamed C
  XR90 unnamed Power_Conference_12V R
  XD5 GND unnamed DIODE
  XC57 GND Power_VIN_48 C
  XC56 GND Power_VIN_48 C
  XC55 GND Power_VIN_48 C
  XR77 unnamed Power_VIN_48 R
  XR78 unnamed GND R
  XR79 unnamed GND R
  XL2 unnamed Power_Conference_12V INDUCTOR
  XR91 GND unnamed R
  XC67 GND Power_Conference_12V C
  XC68 GND Power_Conference_12V C
  XC69 GND Power_Conference_12V C
  XC51 GND Power_VIN_48 C
  XC63 unnamed GND C
  XR87 unnamed unnamed R
  XC65 GND unnamed C
  XC70 GND Power_Conference_12V C
  XC71 GND Power_Conference_12V C
  XC48 GND Power_VIN_48 C
  XC45 GND Power_VIN_48 C
  XCON1 Power_VIN__48V_0 Power_VIN__48V Power_VIN__48V BARREL_JACK
  XCON2 Power_Consumer_12V GND GND BARREL_JACK
  XD6 Power_Conference_12V unnamed DIODESCH
  XD9 Power_Consumer_12V unnamed DIODESCH
  XD8 Power_Consumer_12V unnamed DIODESCH
  XD7 Power_Conference_12V unnamed DIODESCH
  XF1 unnamed VCC12V0 FUSE
  XU12 unnamed VCC3V3 GND VCC1V5 VTTDDR0 GND VTTDDR0 VTTREF VCC3V3 GND unnamed TPS51200
  XD10 unnamed GND LED
  XR94 VCC12V0 unnamed R
  XD4 VCC4V0 VCC3V3 DIODE
  XP27 unnamed unnamed unnamed GND GND GND ATX_POWER_SUPPLY
  XD14 unnamed VCC12V0 DIODESCH
  XC268 GND VCC12V0 C
  XC269 GND VCC12V0 C
  XU10 GND unnamed GND unnamed GND DisplayPort_DPTX_LANEN2 VCC1V2 DisplayPort_DPTX_LANEN3 FPGA_Bank_0_3_DIFFIO_B2N FPGA_Bank_0_3_DIFFIO_A1N FPGA_Bank_0_3_DIFFIO_XN FPGA_Bank_0_3_DIFFIO_A6N FPGA_Bank_0_3_DIFFIO_B0N FPGA_Power_TCK GND FPGA_Bank_0_3_DIFFIO_B6N FPGA_Bank_0_3_DIFFIO_A5N FPGA_Bank_0_3_DIFFIO_B5N DisplayPort_DPTX_LANEN0 VCC1V2 DisplayPort_DPTX_LANEN1 GND FPGA_Bank_0_3_DEBUG_IO1 FPGA_Bank_1_2_TMDS_TX1_1_P VCC3V3 Ethernet_ETH_RXCLK GND FPGA_Bank_1_2_USB_D4 VCC3V3 FPGA_Bank_1_2_TMDS_TX2_1_P GND FPGA_Bank_1_2_TMDS_TX2_CEC VCC3V3 FPGA_Bank_0_3_DEBUG_IO0 FPGA_Bank_1_2_SPI_DO_DIN_MISO1 FPGA_Bank_1_2_FPGA_M0_CMP_MISO FPGA_Power_SUSPEND FPGA_Bank_1_2_SPI_CS_N FPGA_Bank_1_2_SD_DAT0 GND Ethernet_ETH_TXD2 VCC3V3 DisplayPort_DPRXCONFIG1 GND GND FPGA_Bank_1_2_TMDS_TX1_1_N FPGA_Bank_1_2_TMDS_TX1_CLK_N Ethernet_ETH_TXCLK FPGA_Bank_1_2_100MHz FPGA_Bank_1_2_USB_D5 FPGA_Bank_1_2_TMDS_TX2_0_N FPGA_Bank_1_2_TMDS_TX2_1_N FPGA_Bank_1_2_TMDS_TX2_SDA FPGA_Bank_1_2_TMDS_TX2_HOT DisplayPort_DPTXCONFIG2 FPGA_Power_PROG_B FPGA_Bank_1_2_SPI_MOSI_CSI_N_MISO0 FPGA_Power_DONE GND VCC3V3 FPGA_Bank_1_2_SD_DAT1 FPGA_Bank_1_2_SD_DAT2 Ethernet_ETH_TXD3 FPGA_Bank_1_2_TMDS_TX1_HOT DisplayPort_DPRXCONFIG2 FPGA_Bank_1_2_TMDS_TX1_2_N VTTREF unnamed GND unnamed VCC1V2 DisplayPort_DPTX_LANEP2 GND DisplayPort_DPTX_LANEP3 GND FPGA_Bank_0_3_DIFFIO_A1P VCC3V3 FPGA_Bank_0_3_DIFFIO_A6P FPGA_Bank_0_3_DIFFIO_B0P FPGA_Bank_1_2_CY_PA4 FPGA_Bank_1_2_CY_PA5 FPGA_Bank_0_3_DIFFIO_B6P VCC3V3 GND DisplayPort_DPTX_LANEP0 GND DisplayPort_DPTX_LANEP1 VCC1V2 Ethernet_MAC_SDA VCC1V2 FPGA_Bank_0_3_MGTSMACLK_P GND DisplayPort_DPRX_LANEN1 GND DisplayPort_DPRX_LANEN0 GND FPGA_Bank_0_3_DIFFIO_B2P FPGA_Bank_0_3_DIFFIO_A0N FPGA_Bank_0_3_DIFFIO_XP VCC1V5 FPGA_Bank_1_2_CY_FD0 VCC3V3 FPGA_Bank_1_2_CY_FD1 FPGA_Bank_0_3_HSWAP FPGA_Bank_0_3_DIFFIO_A5P FPGA_Bank_0_3_DIFFIO_B5P GND DisplayPort_DPRX_LANEN3 GND DisplayPort_DPRX_LANEN2 unnamed GND FPGA_Bank_0_3_MGTSMACLK_N VCC1V2 DisplayPort_DPRX_LANEP1 VCC1V2 DisplayPort_DPRX_LANEP0 GND FPGA_Bank_0_3_DIFFIO_A0P FPGA_Bank_0_3_DIFFCLK_XP FPGA_Bank_0_3_DIFFCLK_XN unnamed FPGA_Power_TMS FPGA_Bank_1_2_CY_FD4 FPGA_Bank_1_2_CY_FD5 FPGA_Bank_0_3_PCIE_RESET FPGA_Bank_0_3_DIFFIO_B4P FPGA_Bank_0_3_DIFFIO_B4N GND DisplayPort_DPRX_LANEP3 VCC1V2 DisplayPort_DPRX_LANEP2 DDR3_DDR0_A11 VCC1V2 GND FPGA_Bank_0_3_MGT135MHz_P VCC1V2 GND GND FPGA_Bank_0_3_DIFFCLK_B0N VCC3V3 SPI_Flash_TDO_USB_TDI_FPGA VCC3V3 GND FPGA_Bank_1_2_CY_FD12 GND FPGA_Bank_1_2_CY_FD13 DDR3_DDR0_RESET_N unnamed FPGA_Bank_0_3_DIFFIO_A4P FPGA_Bank_0_3_DIFFIO_A4N GND VCC1V2 unnamed DDR3_DDR0_A12 FPGA_Bank_0_3_DIFFCLK_A1P VCC3V3 FPGA_Bank_0_3_MGT135MHz_N GND FPGA_Bank_0_3_DIFFCLK_A0P FPGA_Bank_0_3_DIFFCLK_A0N FPGA_Bank_0_3_DIFFCLK_B0P FPGA_Bank_0_3_DIFFIO_B1N FPGA_Bank_1_2_CY_PA0 FPGA_Bank_1_2_CY_PA1 DDR3_DDR0_CKE FPGA_Bank_1_2_CY_FD7 FPGA_Bank_1_2_CY_FD10 FPGA_Bank_1_2_CY_FD11 unnamed VCC1V5 FPGA_Bank_0_3_PCIO3 VCC3V3 FPGA_Bank_0_3_DIFFIO_YP FPGA_Bank_0_3_DIFFIO_YN FPGA_Bank_0_3_DIFFIO_ZN DDR3_DDR0_A9 VCC3V3 FPGA_Bank_0_3_DIFFCLK_B1N VCC3V3 FPGA_Bank_0_3_DIFFIO_A3N VCC3V3 FPGA_Bank_0_3_DIFFIO_A2N FPGA_Bank_0_3_DIFFIO_B1P SPI_Flash_TDO_FPGA_TDO_JTAG GND FPGA_Bank_1_2_CY_FD6 VCC1V5 FPGA_Bank_1_2_CY_T0 VCC3V3 FPGA_Bank_1_2_CYPRESS_RESET DDR3_DDR0_A8 unnamed GND Ethernet_MAC_SCL FPGA_Bank_0_3_PCIO0 FPGA_Bank_0_3_DIFFIO_ZP FPGA_Bank_0_3_DIFFCLK_A1N DDR3_DDR0_BA2 FPGA_Bank_0_3_DIFFIO_B3P FPGA_Bank_0_3_DIFFIO_B3N FPGA_Bank_0_3_DIFFCLK_B1P FPGA_Bank_0_3_DIFFIO_A3P FPGA_Bank_0_3_DIFFIO_A2P VCC3V3 FPGA_Bank_1_2_CY_PA2 FPGA_Bank_1_2_CY_PA3 FPGA_Bank_1_2_CY_FD8 FPGA_Bank_1_2_CY_FD9 DDR3_DDR0_WE_N FPGA_Bank_1_2_CY_FD15 FPGA_Bank_1_2_TMDS_RX1_1_P FPGA_Bank_1_2_TMDS_RX1_1_N DDR3_DDR0_A4 unnamed DDR3_DDR0_A14 unnamed GND FPGA_Bank_0_3_PCIO2 VCC3V3 DDR3_DDR0_BA1 VCC1V2 GND VCC1V2 GND VCC1V2 GND FPGA_Bank_1_2_CY_PA6 FPGA_Bank_1_2_CY_PA7 VCC3V3 FPGA_Bank_1_2_CY_FD14 GND FPGA_Bank_1_2_TMDS_RX1_0_P GND FPGA_Bank_1_2_TMDS_RX1_0_N DDR3_DDR0_BA0 DDR3_DDR0_A10 VCC1V5 DDR3_DDR0_A13 FPGA_Bank_0_3_PCIO1 VCC1V2 GND DDR3_DDR0_A1 GND VCC1V2 GND VCC1V2 GND VCC3V3 FPGA_Bank_1_2_CY_FD3 FPGA_Bank_1_2_TMDS_RX1_CEC FPGA_Bank_1_2_CY_WR FPGA_Bank_1_2_CY_RD DDR3_DDR0_A0 FPGA_Bank_1_2_TMDS_RX1_2_P FPGA_Bank_0_3_MGTREFCLK0_101_P FPGA_Bank_0_3_MGTREFCLK0_101_N DDR3_DDR0_CK_N DDR3_DDR0_CK_P DDR3_DDR0_A2 DDR3_DDR0_A7 unnamed VTTREF VCC1V2 DDR3_DDR0_DQ5 VCC1V2 GND VCC1V2 GND VCC1V2 FPGA_Bank_1_2_CY_FD2 VCC3V3 FPGA_Bank_1_2_TMDS_RX1_SCL GND FPGA_Bank_1_2_TMDS_RX1_2_N VCC1V5 FPGA_Bank_1_2_TMDS_RX2_CLK_P VCC3V3 FPGA_Bank_1_2_TMDS_RX2_CLK_N DDR3_DDR0_DQ4 DDR3_DDR0_A6 GND DDR3_DDR0_ODT VCC1V5 VCC3V3 GND DDR3_DDR0_DQ7 GND VCC1V2 GND VCC1V2 GND VCC3V3 FPGA_Bank_1_2_CY_RD2 FPGA_Bank_1_2_CY_CTL4 FPGA_Bank_1_2_CY_CTL3 FPGA_Bank_1_2_TMDS_RX1_CLK_N DDR3_DDR0_DQ6 FPGA_Bank_1_2_TMDS_RX1_CLK_P FPGA_Bank_1_2_TMDS_RX2_0_P FPGA_Bank_1_2_TMDS_RX2_0_N DDR3_DDR0_A5 DDR3_DDR0_CAS_N DDR3_DDR0_RAS_N DDR3_DDR0_A3 unnamed VTTREF VCC1V2 DDR3_DDR0_LDQS_N VCC1V2 GND VCC1V2 GND VCC1V2 FPGA_Bank_1_2_CY_RD3 FPGA_Bank_1_2_CY_CTL0 GND VCC3V3 SPI_Flash_27MHz GND FPGA_Bank_1_2_TMDS_RX2_1_P GND FPGA_Bank_1_2_TMDS_RX2_1_N DDR3_DDR0_LDQS_P DDR3_DDR0_LDM VCC1V5 FPGA_Bank_0_3_SMCLK FPGA_Bank_0_3_SMDATA VCC3V3 GND DDR3_DDR0_DQ3 GND VCC1V2 GND VCC1V2 GND FPGA_Power_RFS FPGA_Bank_1_2_CY_CTL1 FPGA_Bank_1_2_CY_RXD1 FPGA_Bank_1_2_CY_RXD0 FPGA_Bank_1_2_CY_RD0 DDR3_DDR0_DQ2 FPGA_Bank_1_2_CY_IFCLK FPGA_Bank_1_2_TMDS_RX2_2_P FPGA_Bank_1_2_TMDS_RX2_2_N DDR3_DDR0_UDM unnamed unnamed unnamed unnamed VTTREF VCC1V2 DDR3_DDR0_DQ1 VCC3V3 DisplayPort_DPRXAUXCH_P VCC3V3 FPGA_Bank_1_2_SPI_D1_MISO2 VCC1V2 FPGA_Bank_1_2_CY_CTL2 FPGA_Bank_1_2_CY_CTL5 FPGA_Bank_1_2_CY_TXD1 GND FPGA_Bank_1_2_CY_RD1 VCC1V5 FPGA_Bank_1_2_TMDS_RX2_HOT VCC3V3 FPGA_Bank_1_2_TMDS_RX2_SDA DDR3_DDR0_DQ0 unnamed GND VCC3V3 unnamed Ethernet_ETH_RXD1 Ethernet_ETH_RXD0 DDR3_DDR0_DQ9 DisplayPort_DPRXAUXCH_P DisplayPort_DPRXAUXCH_N FPGA_Bank_1_2_TMDS_TX2_CLK_P VCC3V3 FPGA_Bank_1_2_SPI_D2_MISO3 DisplayPort_DPTXAUXCH_P FPGA_Power_VBATT FPGA_Bank_1_2_CY_TXD0 FPGA_Bank_1_2_TMDS_RX1_SDA FPGA_Bank_1_2_CY_INT5 DDR3_DDR0_DQ8 FPGA_Bank_1_2_CY_RD5 FPGA_Bank_1_2_TMDS_RX2_SCL FPGA_Bank_1_2_TMDS_RX2_CEC unnamed unnamed unnamed unnamed FPGA_Bank_1_2_SD_CLK Ethernet_ETH_MDIO VCC3V3 DDR3_DDR0_DQ11 DisplayPort_DPRXAUXCH_N VCC3V3 FPGA_Bank_1_2_TMDS_TX2_CLK_N FPGA_Bank_1_2_TMDS_TX2_2_N FPGA_Bank_1_2_TMDS_TX2_2_P DisplayPort_DPTXAUXCH_N DisplayPort_DPTXAUXCH_P FPGA_Power_VFS VCC3V3 FPGA_Bank_1_2_CY_RD4 GND FPGA_Bank_1_2_CY_PC0 GND FPGA_Bank_1_2_CY_PC1 DDR3_DDR0_DQ10 unnamed VCC1V5 FPGA_Bank_1_2_SD_CMD GND Ethernet_ETH_RESET_B Ethernet_ETH_RXCTL DDR3_DDR0_UDQS_N GND FPGA_Bank_1_2_DPTXHPD VCC3V3 FPGA_Bank_1_2_USB_NXT GND DisplayPort_DPTXAUXCH_N VCC3V3 FPGA_Bank_1_2_USB_RESETB unnamed FPGA_Bank_1_2_TMDS_RX1_HOT DDR3_DDR0_UDQS_P DisplayPort_DPTXCONFIG1 FPGA_Bank_1_2_CY_PC2 FPGA_Bank_1_2_CY_PC3 unnamed GND unnamed VCC3V3 Ethernet_ETH_MDC VCC3V3 Ethernet_ETH_INT_B DDR3_DDR0_DQ13 FPGA_Bank_1_2_TMDS_TX1_CEC FPGA_Bank_1_2_DPRXHPD FPGA_Bank_1_2_TMDS_TX1_0_P FPGA_Bank_1_2_USB_DIR FPGA_Bank_1_2_USB_D1 FPGA_Bank_1_2_USB_D7 GND FPGA_Bank_1_2_USB_D3 FPGA_Bank_1_2_USB_STP GND VCC1V5 FPGA_Bank_1_2_CY_PC4 VCC3V3 FPGA_Bank_1_2_CY_PC5 DDR3_DDR0_DQ12 unnamed VCC3V3 Ethernet_ETH_RXD2 GND Ethernet_ETH_TXCTL Ethernet_ETH_TXD0 DDR3_DDR0_DQ15 FPGA_Bank_1_2_TMDS_TX1_SDA FPGA_Bank_1_2_TMDS_TX1_CLK_P FPGA_Bank_1_2_TMDS_TX1_0_N FPGA_Bank_1_2_USB_REFCLK FPGA_Bank_1_2_USB_D0 FPGA_Bank_1_2_TMDS_TX2_0_P FPGA_Bank_1_2_USB_D6 FPGA_Bank_1_2_TMDS_TX2_SCL FPGA_Bank_1_2_USB_D2 FPGA_Bank_1_2_FPGA_M1 DDR3_DDR0_DQ14 FPGA_Bank_1_2_SPI_CLK FPGA_Bank_1_2_CY_PC6 FPGA_Bank_1_2_CY_PC7 FPGA_Bank_0_3_SWITCH FPGA_Bank_1_2_INIT_B FPGA_Bank_1_2_SD_DAT3 Ethernet_ETH_RXD3 FPGA_Bank_1_2_TMDS_TX1_SCL Ethernet_ETH_TXD1 FPGA_Bank_1_2_TMDS_TX1_2_P XC6SLX150T
  XR53 FPGA_Bank_0_3_HSWAP GND R
  XR57 FPGA_Power_RFS VCC3V3 R
  XC82 VCC1V5 GND C
  XC84 VCC1V5 GND C
  XC86 VCC1V5 GND C
  XC88 VCC1V5 GND C
  XC90 VCC1V2 GND C
  XC92 VCC1V5 GND C
  XC94 VCC1V5 GND C
  XC96 VCC1V5 GND C
  XC98 VCC1V5 GND C
  XC102 VCC1V5 GND C
  XC108 GND VCC3V3 C
  XC110 GND VCC3V3 C
  XC112 GND VCC3V3 C
  XC114 GND VCC3V3 C
  XC83 GND VCC3V3 C
  XC85 GND VCC3V3 C
  XC87 GND VCC3V3 C
  XC89 GND VCC3V3 C
  XC91 GND VCC3V3 C
  XC93 GND VCC3V3 C
  XC95 GND VCC3V3 C
  XC97 GND VCC3V3 C
  XC99 GND VCC3V3 C
  XC101 GND VCC3V3 C
  XC103 GND VCC3V3 C
  XC105 GND VCC3V3 C
  XC107 GND VCC3V3 C
  XC109 GND VCC3V3 C
  XC111 GND VCC3V3 C
  XC115 GND VCC3V3 C
  XC117 GND VCC3V3 C
  XC119 GND VCC3V3 C
  XC121 VCC1V2 GND C
  XC123 GND VCC3V3 C
  XC125 GND VCC3V3 C
  XC127 VCC1V5 GND C
  XC116 GND VCC3V3 C
  XC118 GND VCC3V3 C
  XC120 GND VCC3V3 C
  XC122 VCC1V2 GND C
  XC124 VCC1V2 GND C
  XC126 VCC1V2 GND C
  XC128 VCC1V2 GND C
  XC129 VCC1V2 GND C
  XC130 VCC1V2 GND C
  XC131 VCC1V2 GND C
  XD1 unnamed FPGA_Power_DONE LED
  XR55 unnamed VCC3V3 R
  XR56 FPGA_Power_PROG_B VCC3V3 R
  XR52 VCC3V3 FPGA_Bank_1_2_INIT_B R
  XC190 GND VCC3V3 C
  XC213 GND VCC3V3 C
  XC215 VCC1V2 GND C
  XC221 VCC1V2 GND C
  XC236 VCC1V2 GND C
  XC237 VCC1V2 GND C
  XR29 GND FPGA_Power_SUSPEND R
  XR58 FPGA_Power_VFS VCC3V3 R
  XR59 FPGA_Power_VBATT VCC3V3 R
  XC243 GND VCC3V3 C
  XC242 GND VCC3V3 C
  XU3 FPGA_Bank_1_2_SPI_CS_N unnamed unnamed GND FPGA_Bank_1_2_SPI_MOSI_CSI_N_MISO0 FPGA_Bank_1_2_SPI_CLK FPGA_Bank_1_2_SPI_D2_MISO3 VCC3V3 W25Q128FVEIG
  XR16 unnamed FPGA_Bank_1_2_SPI_DO_DIN_MISO1 R
  XR17 unnamed FPGA_Bank_1_2_SPI_D1_MISO2 R
  XR20 VCC3V3 unnamed R
  XR19 VCC3V3 unnamed R
  XR18 VCC3V3 FPGA_Bank_1_2_SPI_CS_N R
  XR21 FPGA_Bank_1_2_SPI_D2_MISO3 VCC3V3 R
  XC36 GND VCC3V3 C
  XJP1 FPGA_Bank_1_2_FPGA_M0_CMP_MISO GND JUMPER
  XJP2 FPGA_Bank_1_2_FPGA_M1 GND JUMPER
  XR60 FPGA_Bank_1_2_SD_DAT2 VCC3V3 R
  XR61 FPGA_Bank_1_2_SD_DAT3 VCC3V3 R
  XR62 FPGA_Bank_1_2_SD_CMD VCC3V3 R
  XR63 FPGA_Bank_1_2_SD_DAT0 VCC3V3 R
  XR64 FPGA_Bank_1_2_SD_DAT1 VCC3V3 R
  XC132 GND VCC3V3 C
  XU17 unnamed GND FPGA_Bank_1_2_100MHz VCC3V3 FXO-HC536R
  XR80 VCC3V3 unnamed R
  XC188 GND VCC3V3 C
  XC189 GND FPGA_Bank_1_2_100MHz C
  XU11 FPGA_Bank_1_2_SD_DAT2 GND GND GND FPGA_Bank_1_2_SD_DAT3 FPGA_Bank_1_2_SD_CMD VCC3V3 FPGA_Bank_1_2_SD_CLK GND FPGA_Bank_1_2_SD_DAT0 FPGA_Bank_1_2_SD_DAT1 GND MICRO_SD
  XP3 GND unnamed GND unnamed GND unnamed VCC3V3 GND unnamed GND unnamed GND unnamed GND CONN_7X2
  XR40 VCC3V3 FPGA_Bank_1_2_FPGA_M0_CMP_MISO R
  XR41 FPGA_Bank_1_2_FPGA_M1 VCC3V3 R
  XR76 unnamed FPGA_Power_TMS R
  XR81 unnamed FPGA_Power_TCK R
  XR82 unnamed SPI_Flash_TDO_FPGA_TDO_JTAG R
  XR83 unnamed SPI_Flash_TDO_USB_TDI_FPGA R
  XU26 unnamed GND SPI_Flash_27MHz VCC3V3 FXO-HC536R
  XR86 VCC3V3 unnamed R
  XC241 GND VCC3V3 C
  XC244 GND SPI_Flash_27MHz C
  XP14 unnamed unnamed unnamed FPGA_Bank_0_3_PCIO1 FPGA_Bank_0_3_PCIO2 unnamed FPGA_Bank_0_3_PCIO3 SPI_Flash_RST unnamed unnamed CONN_5X2
  XR93 VCC3V3 unnamed R
  XR118 unnamed FPGA_Bank_0_3_PCIO0 R
  XR116 GND unnamed R
  XR117 FPGA_Bank_0_3_PCIO3 VCC1V5 R
  XR119 unnamed GND R
  XP28 FPGA_Bank_1_2_SD_DAT1 FPGA_Bank_1_2_SD_DAT0 FPGA_Bank_1_2_SD_CLK FPGA_Bank_1_2_SD_CMD FPGA_Bank_1_2_SD_DAT3 FPGA_Bank_1_2_SD_DAT2 VCC3V3 GND CONN_8
  XU1 VCC1V5 DDR3_DDR0_DQ13 DDR3_DDR0_DQ15 DDR3_DDR0_DQ12 VCC1V5 GND GND VCC1V5 GND DDR3_DDR0_UDQS_N DDR3_DDR0_DQ14 GND VCC1V5 DDR3_DDR0_DQ11 DDR3_DDR0_DQ9 DDR3_DDR0_UDQS_P DDR3_DDR0_DQ10 VCC1V5 GND VCC1V5 DDR3_DDR0_UDM DDR3_DDR0_DQ8 GND VCC1V5 GND GND DDR3_DDR0_DQ0 DDR3_DDR0_LDM GND VCC1V5 VCC1V5 DDR3_DDR0_DQ2 DDR3_DDR0_LDQS_P DDR3_DDR0_DQ1 DDR3_DDR0_DQ3 GND GND DDR3_DDR0_DQ6 DDR3_DDR0_LDQS_N VCC1V5 GND GND VTTREF VCC1V5 DDR3_DDR0_DQ4 DDR3_DDR0_DQ7 DDR3_DDR0_DQ5 VCC1V5 unnamed GND DDR3_DDR0_RAS_N DDR3_DDR0_CK_P GND unnamed DDR3_DDR0_ODT VCC1V5 DDR3_DDR0_CAS_N DDR3_DDR0_CK_N VCC1V5 DDR3_DDR0_CKE unnamed unnamed DDR3_DDR0_WE_N DDR3_DDR0_A10 unnamed unnamed GND DDR3_DDR0_BA0 DDR3_DDR0_BA2 unnamed VTTREF GND VCC1V5 DDR3_DDR0_A3 DDR3_DDR0_A0 DDR3_DDR0_A12 DDR3_DDR0_BA1 VCC1V5 GND DDR3_DDR0_A5 DDR3_DDR0_A2 DDR3_DDR0_A1 DDR3_DDR0_A4 GND VCC1V5 DDR3_DDR0_A7 DDR3_DDR0_A9 DDR3_DDR0_A11 DDR3_DDR0_A6 VCC1V5 GND DDR3_DDR0_RESET_N DDR3_DDR0_A13 DDR3_DDR0_A14 DDR3_DDR0_A8 GND MT41J128M16
  XR1 VTTDDR0 DDR3_DDR0_A13 R
  XR10 VTTDDR0 DDR3_DDR0_BA1 VTTDDR0 DDR3_DDR0_A10 VTTDDR0 DDR3_DDR0_WE_N VTTDDR0 DDR3_DDR0_RAS_N RES_NET4
  XR9 VTTDDR0 DDR3_DDR0_A1 VTTDDR0 DDR3_DDR0_A14 VTTDDR0 DDR3_DDR0_A8 VTTDDR0 DDR3_DDR0_A6 RES_NET4
  XR8 VTTDDR0 DDR3_DDR0_BA2 VTTDDR0 DDR3_DDR0_A2 VTTDDR0 DDR3_DDR0_A9 VTTDDR0 DDR3_DDR0_A0 RES_NET4
  XR3 VTTDDR0 DDR3_DDR0_BA0 VTTDDR0 DDR3_DDR0_A5 VTTDDR0 DDR3_DDR0_A7 VTTDDR0 DDR3_DDR0_A3 RES_NET4
  XR2 VTTDDR0 DDR3_DDR0_A11 VTTDDR0 DDR3_DDR0_A4 VTTDDR0 DDR3_DDR0_A12 VTTDDR0 DDR3_DDR0_CAS_N RES_NET4
  XR11 GND unnamed R
  XR12 unnamed GND R
  XC33 VTTREF GND C
  XR4 DDR3_DDR0_CK_N DDR3_DDR0_CK_P R
  XR7 GND DDR3_DDR0_CKE R
  XR6 GND DDR3_DDR0_ODT R
  XR5 GND DDR3_DDR0_RESET_N R
  XC1 VTTDDR0 GND C
  XC2 VTTDDR0 GND C
  XC3 VTTDDR0 GND C
  XC4 VTTDDR0 GND C
  XC5 VTTDDR0 GND C
  XC6 VTTDDR0 GND C
  XC7 VTTDDR0 GND C
  XC8 VTTDDR0 GND C
  XC9 VTTDDR0 GND C
  XC10 VTTDDR0 GND C
  XC11 VTTDDR0 GND C
  XC12 VTTDDR0 GND C
  XC13 VTTDDR0 GND C
  XC14 VTTDDR0 GND C
  XC15 VTTDDR0 GND C
  XC16 GND VCC1V5 C
  XC17 GND VCC1V5 C
  XC18 GND VCC1V5 C
  XC19 GND VCC1V5 C
  XC20 GND VCC1V5 C
  XC21 GND VCC1V5 C
  XC22 GND VCC1V5 C
  XC23 GND VCC1V5 C
  XC24 GND VCC1V5 C
  XC25 GND VCC1V5 C
  XC26 GND VCC1V5 C
  XC27 GND VCC1V5 C
  XC28 GND VCC1V5 C
  XC29 GND VCC1V5 C
  XC30 GND VCC1V5 C
  XC31 GND VCC1V5 C
  XC32 GND VCC1V5 C
  XC174 VTTDDR0 GND C
  XC176 VTTDDR0 GND C
  XC178 VTTDDR0 GND C
  XC180 VTTDDR0 GND C
  XC182 VTTDDR0 GND C
  XC184 VTTDDR0 GND C
  XC186 VTTDDR0 GND C
  XC187 VTTDDR0 GND C
  XC207 VTTDDR0 GND C
  XC209 VTTDDR0 GND C
  XJ8 unnamed unnamed GND unnamed DisplayPort_DPTXCONFIG1 DisplayPort_DPTXCONFIG2 unnamed GND unnamed FPGA_Bank_1_2_DPTXHPD GND GND unnamed unnamed unnamed GND unnamed unnamed GND unnamed DISPLAY_PORT
  XJ9 unnamed unnamed GND unnamed DisplayPort_DPRXCONFIG1 DisplayPort_DPRXCONFIG2 unnamed GND unnamed FPGA_Bank_1_2_DPRXHPD GND GND unnamed unnamed unnamed GND unnamed unnamed GND unnamed DISPLAY_PORT
  XR25 unnamed GND R
  XF3 VCC4V0 unnamed FUSE
  XR42 DisplayPort_DPTXCONFIG1 GND R
  XR43 DisplayPort_DPTXCONFIG2 GND R
  XR45 DisplayPort_DPRXCONFIG1 GND R
  XR46 DisplayPort_DPRXCONFIG2 GND R
  XR47 FPGA_Bank_1_2_DPRXHPD GND R
  XR44 FPGA_Bank_1_2_DPTXHPD GND R
  XD3 unnamed unnamed DIODE
  XF2 VCC4V0 unnamed FUSE
  XD11 unnamed unnamed DIODE
  XC47 unnamed GND C
  XC49 unnamed GND C
  XC264 DisplayPort_DPRX_LANEN3 unnamed C
  XC265 DisplayPort_DPRX_LANEP3 unnamed C
  XC260 DisplayPort_DPRX_LANEN2 unnamed C
  XC261 DisplayPort_DPRX_LANEP2 unnamed C
  XC266 DisplayPort_DPRX_LANEN1 unnamed C
  XC267 DisplayPort_DPRX_LANEP1 unnamed C
  XC262 DisplayPort_DPRX_LANEN0 unnamed C
  XC263 DisplayPort_DPRX_LANEP0 unnamed C
  XC254 DisplayPort_DPTX_LANEP0 unnamed C
  XC255 DisplayPort_DPTX_LANEN0 unnamed C
  XC104 DisplayPort_DPTX_LANEP1 unnamed C
  XC106 DisplayPort_DPTX_LANEN1 unnamed C
  XC256 DisplayPort_DPTX_LANEP2 unnamed C
  XC257 DisplayPort_DPTX_LANEN2 unnamed C
  XC251 DisplayPort_DPTX_LANEP3 unnamed C
  XC253 DisplayPort_DPTX_LANEN3 unnamed C
  XC50 DisplayPort_DPTXAUXCH_P unnamed C
  XC100 DisplayPort_DPTXAUXCH_N unnamed C
  XC258 DisplayPort_DPRXAUXCH_P unnamed C
  XC259 DisplayPort_DPRXAUXCH_N unnamed C
  XR122 unnamed GND R
  XR123 unnamed unnamed R
  XC238 Ethernet_XTAL1_50MHZ GND C
  XL6 VCC3V3 Ethernet_AVDD3V3 INDUCTOR
  XC235 Ethernet_XTAL2_50MHZ GND C
  XR89 unnamed GND R
  XR92 unnamed VCC3V3 R
  XX2 Ethernet_XTAL2_50MHZ Ethernet_XTAL1_50MHZ CRYSTAL
  XC239 VCC3V3 GND C
  XU23 GND GND unnamed GND Ethernet_MAC_SDA Ethernet_MAC_SCL Ethernet_MAC_WP VCC3V3 24AA02E48
  XU20 unnamed unnamed unnamed unnamed Ethernet_ETH_RXCTL Ethernet_ETH_RXD0 Ethernet_ETH_VCC3V3 Ethernet_ETH_RXD1 Ethernet_ETH_RXD2 Ethernet_ETH_RXD3 Ethernet_ETH_RXCLK unnamed Ethernet_ETH_INT_B Ethernet_ETH_VCC3V3 Ethernet_ETH_TXCLK Ethernet_ETH_TXD0 Ethernet_ETH_TXD1 Ethernet_ETH_TXD2 Ethernet_ETH_TXD3 Ethernet_ETH_TXCTL Ethernet_ETH_VCC1V0 Ethernet_ETH_RESET_B Ethernet_ETH_VCC1V0 Ethernet_ETH_MDC Ethernet_ETH_MDIO unnamed unnamed unnamed unnamed Ethernet_ETH_VCC1V0 Ethernet_ETH_VCC3V3 GND unnamed unnamed Ethernet_ETH_VCC1V0 Ethernet_AVDD3V3 Ethernet_XTAL1_50MHZ Ethernet_XTAL2_50MHZ unnamed unnamed unnamed GND unnamed unnamed Ethernet_AVDD3V3 unnamed unnamed Ethernet_ETH_VCC1V0 GND RTL8211E-VL
  XJ6 GND unnamed GND unnamed Ethernet_LED0 Ethernet_LED1 unnamed unnamed unnamed unnamed unnamed unnamed unnamed unnamed unnamed RJ45(HFJ11-1GO1ERL)
  XR71 unnamed VCC3V3 R
  XR70 unnamed Ethernet_LED0 R
  XR69 unnamed GND R
  XR73 unnamed Ethernet_LED1 R
  XR74 unnamed GND R
  XR75 unnamed VCC3V3 R
  XC210 VCC3V3 GND C
  XC217 VCC3V3 GND C
  XC224 Ethernet_AVDD3V3 GND C
  XC227 Ethernet_AVDD3V3 GND C
  XC230 Ethernet_AVDD3V3 GND C
  XL7 VCC3V3 Ethernet_ETH_VCC3V3 INDUCTOR
  XC211 VCC3V3 GND C
  XC218 VCC3V3 GND C
  XC225 Ethernet_ETH_VCC3V3 GND C
  XC228 Ethernet_ETH_VCC3V3 GND C
  XC231 Ethernet_ETH_VCC3V3 GND C
  XL1 Ethernet_VCC1V0 Ethernet_ETH_VCC1V0 INDUCTOR
  XC212 Ethernet_VCC1V0 GND C
  XC223 Ethernet_ETH_VCC1V0 GND C
  XC232 Ethernet_ETH_VCC1V0 GND C
  XC233 Ethernet_ETH_VCC1V0 GND C
  XC234 Ethernet_ETH_VCC1V0 GND C
  XC220 Ethernet_ETH_VCC3V3 GND C
  XC229 Ethernet_ETH_VCC1V0 GND C
  XC226 Ethernet_ETH_VCC1V0 GND C
  XR67 Ethernet_ETH_VCC3V3 Ethernet_ETH_RXD3 R
  XR66 Ethernet_ETH_VCC3V3 Ethernet_ETH_RXD2 R
  XR65 Ethernet_ETH_VCC3V3 Ethernet_ETH_RXD1 R
  XR49 Ethernet_ETH_VCC3V3 Ethernet_ETH_RXD0 R
  XR48 GND Ethernet_ETH_RXCTL R
  XC216 GND Ethernet_ETH_RXCLK C
  XR50 Ethernet_ETH_VCC3V3 Ethernet_ETH_MDIO R
  XR51 Ethernet_ETH_RESET_B VCC3V3 R
  XC222 Ethernet_ETH_RESET_B GND C
  XU19 unnamed VCC3V3 GND Ethernet_VCC1V0 unnamed GND MCP1825
  XR38 unnamed Ethernet_VCC1V0 R
  XR39 GND unnamed R
  XR22 unnamed VCC3V3 R
  XC203 VCC3V3 GND C
  XC204 Ethernet_VCC1V0 GND C
  XC219 Ethernet_ETH_VCC3V3 GND C
  XC214 Ethernet_ETH_VCC3V3 GND C
  XK1 VCC3V3 unnamed GND CONN_3
  XK2 GND unnamed VCC3V3 CONN_3
  XR151 Ethernet_MAC_WP unnamed R